* NGSPICE file created from SUNSAR_SAR8B_CV.ext - technology: sky130B

* Replacing the lpe port list (../tech/scripts/fixlpe)
.subckt SUNSAR_SAR8B_CV SAR_IP SAR_IN SARN SARP DONE D<7> D<6> D<5> D<4> D<3> D<2> D<1> D<0> EN CK_SAMPLE CK_SAMPLE_BSSW VREF
+ AVDD AVSS
*.subckt SUNSAR_SAR8B_CV CK_SAMPLE_BSSW D<2> DONE D<1> SAR_IN D<0> D<4> SARP SAR_IP
*+ CK_SAMPLE D<6> D<7> SARN D<3> D<5> AVDD EN AVSS VREF
X0 XA1.XA11.A XA1.XA9.Y AVDD AVDD sky130_fd_pr__pfet_01v8 ad=0.6156 pd=3.3 as=0.6156 ps=3.3 w=1.08 l=0.18
X1 XA1.XA11.A XA1.XA9.Y AVSS AVSS sky130_fd_pr__nfet_01v8 ad=0.6156 pd=3.3 as=0.6156 ps=3.3 w=1.08 l=0.18
X2 XA6.XA1.XA1.MP3.S XA0.CMP_OP XA6.XA1.XA1.MP2.S AVDD sky130_fd_pr__pfet_01v8 ad=0.6156 pd=3.3 as=0.6156 ps=3.3 w=1.08 l=0.18
X3 DONE XA7.XA9.A AVSS AVSS sky130_fd_pr__nfet_01v8 ad=0.6156 pd=3.3 as=0.6156 ps=3.3 w=1.08 l=0.18
X4 VREF XA0.XA1.CHL_OP XDAC1.CP<8> AVDD sky130_fd_pr__pfet_01v8 ad=0.6156 pd=3.3 as=0.6156 ps=3.3 w=1.08 l=0.18
X5 DONE XA7.XA9.A AVDD AVDD sky130_fd_pr__pfet_01v8 ad=0.6156 pd=3.3 as=0.6156 ps=3.3 w=1.08 l=0.18
X6 AVSS CK_SAMPLE XA5.XA6.MN1.S AVSS sky130_fd_pr__nfet_01v8 ad=0.6156 pd=3.3 as=0.6156 ps=3.3 w=1.08 l=0.18
X7 XB1.CKN CK_SAMPLE_BSSW AVDD AVDD sky130_fd_pr__pfet_01v8 ad=0.6156 pd=3.3 as=0.6156 ps=3.3 w=1.08 l=0.18
X8 AVSS XA7.CP0 XA7.CN0 AVSS sky130_fd_pr__nfet_01v8 ad=0.6156 pd=3.3 as=0.6156 ps=3.3 w=1.08 l=0.18
X9 VREF XA0.XA2.A D<7> AVDD sky130_fd_pr__pfet_01v8 ad=0.6156 pd=3.3 as=0.6156 ps=3.3 w=1.08 l=0.18
X10 VREF XA7.CP0 XA7.CN0 AVDD sky130_fd_pr__pfet_01v8 ad=0.6156 pd=3.3 as=0.6156 ps=3.3 w=1.08 l=0.18
X11 AVSS XA5.XA1.CHL_OP XA5.CP0 AVSS sky130_fd_pr__nfet_01v8 ad=0.6156 pd=3.3 as=0.6156 ps=3.3 w=1.08 l=0.18
R0 XB1.XA3.B m3_7184_3476# sky130_fd_pr__res_generic_m3 w=0.44 l=0.36
X12 XA6.XA1.CHL_OP EN XA6.XA1.XA4.MP2.S AVDD sky130_fd_pr__pfet_01v8 ad=0.6156 pd=3.3 as=0.6156 ps=3.3 w=1.08 l=0.18
X13 XA2.XA1.XA5.MN1.S XA0.CMP_ON AVSS AVSS sky130_fd_pr__nfet_01v8 ad=0.6156 pd=3.3 as=0.6156 ps=3.3 w=1.08 l=0.18
X14 XA20.XA4.MP0.S XA20.XA1.CKN AVSS AVSS sky130_fd_pr__nfet_01v8 ad=0.6156 pd=3.3 as=0.6156 ps=3.3 w=1.08 l=0.18
X15 AVSS XA20.XA2.CO XA0.CMP_ON AVSS sky130_fd_pr__nfet_01v8 ad=0.6156 pd=3.3 as=0.6156 ps=3.3 w=1.08 l=0.18
X16 AVSS XA5.CN1 D<2> AVSS sky130_fd_pr__nfet_01v8 ad=0.6156 pd=3.3 as=0.6156 ps=3.3 w=1.08 l=0.18
X17 XA6.XA1.XA1.MP2.S XA0.CMP_ON XA6.ENO AVDD sky130_fd_pr__pfet_01v8 ad=0.6156 pd=3.3 as=0.6156 ps=3.3 w=1.08 l=0.18
R1 XDAC1.X16ab.XRES4.B D<5> sky130_fd_pr__res_generic_l1 w=0.38 l=0.3
X18 AVSS AVSS AVSS AVSS sky130_fd_pr__nfet_01v8 ad=0.6156 pd=3.3 as=202.5324 ps=1.0857k w=1.08 l=0.18
X19 XDAC1.CP<8> XA0.XA1.CHL_OP VREF AVDD sky130_fd_pr__pfet_01v8 ad=0.6156 pd=3.3 as=0.6156 ps=3.3 w=1.08 l=0.18
R2 XDAC2.CP<8> XDAC2.XC1.XRES2.B sky130_fd_pr__res_generic_l1 w=0.38 l=0.3
X20 AVSS XA0.CMP_OP XA2.XA1.XA1.MN2.S AVSS sky130_fd_pr__nfet_01v8 ad=0.6156 pd=3.3 as=0.6156 ps=3.3 w=1.08 l=0.18
X21 AVDD AVDD AVDD AVDD sky130_fd_pr__pfet_01v8 ad=0.6156 pd=3.3 as=136.0476 ps=729.3 w=1.08 l=0.18
X22 XA5.XA11.A XA5.XA9.Y AVSS AVSS sky130_fd_pr__nfet_01v8 ad=0.6156 pd=3.3 as=0.6156 ps=3.3 w=1.08 l=0.18
R3 XDAC1.XC0.XRES16.B XDAC1.CP<9> sky130_fd_pr__res_generic_l1 w=0.38 l=0.3
X23 XA6.XA6.MP3.S D<1> AVDD AVDD sky130_fd_pr__pfet_01v8 ad=0.6156 pd=3.3 as=0.6156 ps=3.3 w=1.08 l=0.18
X24 D<5> XDAC2.CP<5> VREF AVDD sky130_fd_pr__pfet_01v8 ad=0.6156 pd=3.3 as=0.6156 ps=3.3 w=1.08 l=0.18
X25 XA7.XA9.MN1.S XA7.XA9.A AVSS AVSS sky130_fd_pr__nfet_01v8 ad=0.6156 pd=3.3 as=0.6156 ps=3.3 w=1.08 l=0.18
X26 XA20.XA4.MP0.S SARN XA20.XA4.MP0.S AVSS sky130_fd_pr__nfet_01v8 ad=0.6156 pd=3.3 as=7.3872 ps=39.6 w=1.08 l=0.18
X27 XDAC2.CP<4> XDAC1.CP<4> VREF AVDD sky130_fd_pr__pfet_01v8 ad=0.6156 pd=3.3 as=0.6156 ps=3.3 w=1.08 l=0.18
X28 D<7> XA0.XA2.A VREF AVDD sky130_fd_pr__pfet_01v8 ad=0.6156 pd=3.3 as=0.6156 ps=3.3 w=1.08 l=0.18
X29 VREF XA5.XA2.A XA5.CN1 AVDD sky130_fd_pr__pfet_01v8 ad=0.6156 pd=3.3 as=0.6156 ps=3.3 w=1.08 l=0.18
X30 XA7.XA9.Y XA7.XA9.A AVDD AVDD sky130_fd_pr__pfet_01v8 ad=0.6156 pd=3.3 as=0.6156 ps=3.3 w=1.08 l=0.18
X31 D<2> XA5.CN1 VREF AVDD sky130_fd_pr__pfet_01v8 ad=0.6156 pd=3.3 as=0.6156 ps=3.3 w=1.08 l=0.18
X32 XDAC2.CP<0> XA6.CP0 VREF AVDD sky130_fd_pr__pfet_01v8 ad=0.6156 pd=3.3 as=0.6156 ps=3.3 w=1.08 l=0.18
X33 XA5.XA1.XA4.MP2.S EN XA5.XA1.XA4.MP1.S AVDD sky130_fd_pr__pfet_01v8 ad=0.6156 pd=3.3 as=0.6156 ps=3.3 w=1.08 l=0.18
X34 XA2.XA1.CHL_OP XA1.ENO XA2.XA1.XA4.MN2.S AVSS sky130_fd_pr__nfet_01v8 ad=0.6156 pd=3.3 as=0.6156 ps=3.3 w=1.08 l=0.18
X35 XA7.XA6.MN1.S CK_SAMPLE AVSS AVSS sky130_fd_pr__nfet_01v8 ad=0.6156 pd=3.3 as=0.6156 ps=3.3 w=1.08 l=0.18
X36 XA20.XA2.VMR XA20.XA2.CO XA20.XA3.N2 AVSS sky130_fd_pr__nfet_01v8 ad=0.6156 pd=3.3 as=0.6156 ps=3.3 w=1.08 l=0.18
R4 XB2.XA4.GNG m3_22808_132# sky130_fd_pr__res_generic_m3 w=0.44 l=0.36
X37 XA7.XA6.MP1.S XA7.CN0 XA7.XA6.Y AVDD sky130_fd_pr__pfet_01v8 ad=0.6156 pd=3.3 as=0.6156 ps=3.3 w=1.08 l=0.18
X38 AVDD XA6.XA6.Y XA6.XA9.Y AVDD sky130_fd_pr__pfet_01v8 ad=0.6156 pd=3.3 as=0.6156 ps=3.3 w=1.08 l=0.18
X39 XA2.XA1.XA1.MN2.S XA0.CMP_ON AVSS AVSS sky130_fd_pr__nfet_01v8 ad=0.6156 pd=3.3 as=0.6156 ps=3.3 w=1.08 l=0.18
X40 XA7.CEO XA7.XA11.Y AVSS AVSS sky130_fd_pr__nfet_01v8 ad=0.6156 pd=3.3 as=0.6156 ps=3.3 w=1.08 l=0.18
X41 XA2.XA6.Y D<5> XA2.XA6.MP3.S AVDD sky130_fd_pr__pfet_01v8 ad=0.6156 pd=3.3 as=0.6156 ps=3.3 w=1.08 l=0.18
X42 XA7.CEO XA7.XA11.Y AVDD AVDD sky130_fd_pr__pfet_01v8 ad=0.6156 pd=3.3 as=0.6156 ps=3.3 w=1.08 l=0.18
X43 XA7.CP0 XA7.XA1.CHL_OP AVSS AVSS sky130_fd_pr__nfet_01v8 ad=0.6156 pd=3.3 as=0.6156 ps=3.3 w=1.08 l=0.18
X44 XA20.XA2.N1 XA20.XA1.CK AVSS AVSS sky130_fd_pr__nfet_01v8 ad=0.6156 pd=3.3 as=0.6156 ps=3.3 w=1.08 l=0.18
X45 AVDD XDAC2.CP<0> XA6.XA6.MP1.S AVDD sky130_fd_pr__pfet_01v8 ad=0.6156 pd=3.3 as=0.6156 ps=3.3 w=1.08 l=0.18
X46 XA7.CP0 XA7.XA1.CHL_OP VREF AVDD sky130_fd_pr__pfet_01v8 ad=0.6156 pd=3.3 as=0.6156 ps=3.3 w=1.08 l=0.18
X47 VREF XDAC1.CP<4> XDAC2.CP<4> AVDD sky130_fd_pr__pfet_01v8 ad=0.6156 pd=3.3 as=0.6156 ps=3.3 w=1.08 l=0.18
X48 XA5.CN1 XA5.XA2.A VREF AVDD sky130_fd_pr__pfet_01v8 ad=0.6156 pd=3.3 as=0.6156 ps=3.3 w=1.08 l=0.18
X49 XA2.XA6.MN3.S CK_SAMPLE AVSS AVSS sky130_fd_pr__nfet_01v8 ad=0.6156 pd=3.3 as=0.6156 ps=3.3 w=1.08 l=0.18
X50 XA3.XA1.XA5.MN2.S XA3.XA1.XA4.LCK_N XA3.XA1.XA5.MN1.S AVSS sky130_fd_pr__nfet_01v8 ad=0.6156 pd=3.3 as=0.6156 ps=3.3 w=1.08 l=0.18
R5 XDAC2.CP<5> XDAC2.X16ab.XRES2.B sky130_fd_pr__res_generic_l1 w=0.38 l=0.3
X51 XA3.XA1.XA5.MP2.S EN XA3.XA1.XA5.MP1.S AVDD sky130_fd_pr__pfet_01v8 ad=0.6156 pd=3.3 as=0.6156 ps=3.3 w=1.08 l=0.18
X52 VREF XA6.XA1.CHL_OP XA6.CP0 AVDD sky130_fd_pr__pfet_01v8 ad=0.6156 pd=3.3 as=0.6156 ps=3.3 w=1.08 l=0.18
X53 XA0.XA11.Y XB1.TIE_L XA0.XA11.MP1.S AVDD sky130_fd_pr__pfet_01v8 ad=0.6156 pd=3.3 as=0.6156 ps=3.3 w=1.08 l=0.18
X54 VREF XDAC2.CP<5> D<5> AVDD sky130_fd_pr__pfet_01v8 ad=0.6156 pd=3.3 as=0.6156 ps=3.3 w=1.08 l=0.18
X55 XDAC2.CP<4> XDAC1.CP<4> AVSS AVSS sky130_fd_pr__nfet_01v8 ad=0.6156 pd=3.3 as=0.6156 ps=3.3 w=1.08 l=0.18
R6 XDAC1.X16ab.XRES16.B XDAC1.CP<6> sky130_fd_pr__res_generic_l1 w=0.38 l=0.3
X56 XA3.ENO XA3.XA1.XA1.MP3.G AVSS AVSS sky130_fd_pr__nfet_01v8 ad=0.6156 pd=3.3 as=0.6156 ps=3.3 w=1.08 l=0.18
X57 AVDD XA3.XA1.XA1.MP3.G XA3.XA1.XA1.MP3.S AVDD sky130_fd_pr__pfet_01v8 ad=0.6156 pd=3.3 as=0.6156 ps=3.3 w=1.08 l=0.18
X58 VREF XA6.CN1 D<1> AVDD sky130_fd_pr__pfet_01v8 ad=0.6156 pd=3.3 as=0.6156 ps=3.3 w=1.08 l=0.18
X59 XA2.XA9.Y XA2.XA6.Y XA2.XA9.MN1.S AVSS sky130_fd_pr__nfet_01v8 ad=0.6156 pd=3.3 as=0.6156 ps=3.3 w=1.08 l=0.18
X60 XA0.XA9.A XA0.ENO AVDD AVDD sky130_fd_pr__pfet_01v8 ad=0.6156 pd=3.3 as=0.6156 ps=3.3 w=1.08 l=0.18
X61 SAR_IP XB1.M1.G SARP AVSS sky130_fd_pr__nfet_01v8 ad=0.6156 pd=3.3 as=0.6156 ps=3.3 w=1.08 l=0.18
R7 D<7> XDAC2.XC0.XRES2.B sky130_fd_pr__res_generic_l1 w=0.38 l=0.3
X62 XA4.XA1.XA5.MP2.S EN XA4.XA1.XA5.MP1.S AVDD sky130_fd_pr__pfet_01v8 ad=0.6156 pd=3.3 as=0.6156 ps=3.3 w=1.08 l=0.18
X63 XA6.XA11.A XA6.XA9.Y AVDD AVDD sky130_fd_pr__pfet_01v8 ad=0.6156 pd=3.3 as=0.6156 ps=3.3 w=1.08 l=0.18
X64 AVSS CK_SAMPLE XA2.XA6.MN1.S AVSS sky130_fd_pr__nfet_01v8 ad=0.6156 pd=3.3 as=0.6156 ps=3.3 w=1.08 l=0.18
X65 AVDD XA4.XA1.XA1.MP3.G XA4.XA1.XA1.MP3.S AVDD sky130_fd_pr__pfet_01v8 ad=0.6156 pd=3.3 as=0.6156 ps=3.3 w=1.08 l=0.18
X66 XA0.XA11.MP1.S XA0.XA11.A AVDD AVDD sky130_fd_pr__pfet_01v8 ad=0.6156 pd=3.3 as=0.6156 ps=3.3 w=1.08 l=0.18
X67 AVSS XA2.XA1.CHL_OP XDAC1.CP<4> AVSS sky130_fd_pr__nfet_01v8 ad=0.6156 pd=3.3 as=0.6156 ps=3.3 w=1.08 l=0.18
X68 XA20.XA2.CO XA20.XA2.VMR AVDD AVDD sky130_fd_pr__pfet_01v8 ad=0.6156 pd=3.3 as=0.6156 ps=3.3 w=1.08 l=0.18
X69 AVDD XA20.XA2.VMR XA0.CMP_OP AVDD sky130_fd_pr__pfet_01v8 ad=0.6156 pd=3.3 as=0.6156 ps=3.3 w=1.08 l=0.18
X70 XA3.XA2.A XA2.ENO XA3.XA1.XA5.MN2.S AVSS sky130_fd_pr__nfet_01v8 ad=0.6156 pd=3.3 as=0.6156 ps=3.3 w=1.08 l=0.18
X71 XA3.XA2.A EN XA3.XA1.XA5.MP2.S AVDD sky130_fd_pr__pfet_01v8 ad=0.6156 pd=3.3 as=0.6156 ps=3.3 w=1.08 l=0.18
R8 XDAC1.XC1.XRES1B.B XDAC1.CP<8> sky130_fd_pr__res_generic_l1 w=0.38 l=0.3
X72 XA5.DONE XA5.XA9.A AVDD AVDD sky130_fd_pr__pfet_01v8 ad=0.6156 pd=3.3 as=0.6156 ps=3.3 w=1.08 l=0.18
X73 AVSS XDAC2.CP<5> D<5> AVSS sky130_fd_pr__nfet_01v8 ad=0.6156 pd=3.3 as=0.6156 ps=3.3 w=1.08 l=0.18
X74 AVDD AVDD AVDD AVDD sky130_fd_pr__pfet_01v8 ad=0.6156 pd=3.3 as=0 ps=0 w=1.08 l=0.18
R9 XDAC2.CP<1> XDAC2.XC32a<0>.XRES2.B sky130_fd_pr__res_generic_l1 w=0.38 l=0.3
X75 XA3.XA1.XA4.LCK_N XA3.ENO AVSS AVSS sky130_fd_pr__nfet_01v8 ad=0.6156 pd=3.3 as=0.6156 ps=3.3 w=1.08 l=0.18
R10 m3_416_1188# XB1.XA4.GNG sky130_fd_pr__res_generic_m3 w=0.44 l=0.36
X76 XA3.XA1.XA4.LCK_N XA3.ENO AVDD AVDD sky130_fd_pr__pfet_01v8 ad=0.6156 pd=3.3 as=0.6156 ps=3.3 w=1.08 l=0.18
X77 XA2.XA11.A XA2.XA9.Y AVSS AVSS sky130_fd_pr__nfet_01v8 ad=0.6156 pd=3.3 as=0.6156 ps=3.3 w=1.08 l=0.18
X78 VREF XA5.CP0 XDAC2.CP<1> AVDD sky130_fd_pr__pfet_01v8 ad=0.6156 pd=3.3 as=0.6156 ps=3.3 w=1.08 l=0.18
R11 m3_416_4356# XB1.XA4.GNG sky130_fd_pr__res_generic_m3 w=0.44 l=0.36
X79 XA4.XA2.A EN XA4.XA1.XA5.MP2.S AVDD sky130_fd_pr__pfet_01v8 ad=0.6156 pd=3.3 as=0.6156 ps=3.3 w=1.08 l=0.18
X80 XA0.XA1.XA5.MN1.S XA0.CMP_ON AVSS AVSS sky130_fd_pr__nfet_01v8 ad=0.6156 pd=3.3 as=0.6156 ps=3.3 w=1.08 l=0.18
X81 AVDD XA20.XA2.VMR XA20.XA2.CO AVDD sky130_fd_pr__pfet_01v8 ad=0.6156 pd=3.3 as=0.6156 ps=3.3 w=1.08 l=0.18
R12 XB2.XA4.GNG m3_22808_3300# sky130_fd_pr__res_generic_m3 w=0.44 l=0.36
X82 XA4.XA1.XA4.LCK_N XA5.EN AVDD AVDD sky130_fd_pr__pfet_01v8 ad=0.6156 pd=3.3 as=0.6156 ps=3.3 w=1.08 l=0.18
X83 AVSS XA0.CMP_OP XA0.XA1.XA1.MN2.S AVSS sky130_fd_pr__nfet_01v8 ad=0.6156 pd=3.3 as=0.6156 ps=3.3 w=1.08 l=0.18
X84 AVDD AVDD AVDD AVDD sky130_fd_pr__pfet_01v8 ad=0.6156 pd=3.3 as=0 ps=0 w=1.08 l=0.18
X85 XA5.XA9.Y XA5.XA9.A AVDD AVDD sky130_fd_pr__pfet_01v8 ad=0.6156 pd=3.3 as=0.6156 ps=3.3 w=1.08 l=0.18
X86 XA0.XA1.CHL_OP EN XA0.XA1.XA4.MN2.S AVSS sky130_fd_pr__nfet_01v8 ad=0.6156 pd=3.3 as=0.6156 ps=3.3 w=1.08 l=0.18
X87 XA5.XA6.MP1.S XDAC2.CP<1> XA5.XA6.Y AVDD sky130_fd_pr__pfet_01v8 ad=0.6156 pd=3.3 as=0.6156 ps=3.3 w=1.08 l=0.18
X88 D<4> XA3.CN1 AVSS AVSS sky130_fd_pr__nfet_01v8 ad=0.6156 pd=3.3 as=0.6156 ps=3.3 w=1.08 l=0.18
X89 XDAC2.CP<3> XA3.CP0 AVSS AVSS sky130_fd_pr__nfet_01v8 ad=0.6156 pd=3.3 as=0.6156 ps=3.3 w=1.08 l=0.18
X90 D<4> XA3.CN1 VREF AVDD sky130_fd_pr__pfet_01v8 ad=0.6156 pd=3.3 as=0.6156 ps=3.3 w=1.08 l=0.18
X91 XA0.XA1.XA1.MN2.S XA0.CMP_ON AVSS AVSS sky130_fd_pr__nfet_01v8 ad=0.6156 pd=3.3 as=0.6156 ps=3.3 w=1.08 l=0.18
X92 XA4.XA1.XA5.MN1.S XA0.CMP_ON AVSS AVSS sky130_fd_pr__nfet_01v8 ad=0.6156 pd=3.3 as=0.6156 ps=3.3 w=1.08 l=0.18
X93 AVSS XA6.XA2.A XA6.CN1 AVSS sky130_fd_pr__nfet_01v8 ad=0.6156 pd=3.3 as=0.6156 ps=3.3 w=1.08 l=0.18
X94 XDAC2.CP<3> XA3.CP0 VREF AVDD sky130_fd_pr__pfet_01v8 ad=0.6156 pd=3.3 as=0.6156 ps=3.3 w=1.08 l=0.18
X95 D<1> XA6.CN1 AVSS AVSS sky130_fd_pr__nfet_01v8 ad=0.6156 pd=3.3 as=0.6156 ps=3.3 w=1.08 l=0.18
X96 XA5.CEO XA5.XA11.Y AVDD AVDD sky130_fd_pr__pfet_01v8 ad=0.6156 pd=3.3 as=0.6156 ps=3.3 w=1.08 l=0.18
X97 XA5.CP0 XA5.XA1.CHL_OP VREF AVDD sky130_fd_pr__pfet_01v8 ad=0.6156 pd=3.3 as=0.6156 ps=3.3 w=1.08 l=0.18
X98 XA6.XA1.XA4.MN2.S XA6.XA1.XA4.LCK_N XA6.XA1.XA4.MN1.S AVSS sky130_fd_pr__nfet_01v8 ad=0.6156 pd=3.3 as=0.6156 ps=3.3 w=1.08 l=0.18
X99 AVSS XA0.CMP_OP XA4.XA1.XA1.MN2.S AVSS sky130_fd_pr__nfet_01v8 ad=0.6156 pd=3.3 as=0.6156 ps=3.3 w=1.08 l=0.18
X100 XA20.XA1.CK XA20.XA1.CKN AVDD AVDD sky130_fd_pr__pfet_01v8 ad=0.6156 pd=3.3 as=0.6156 ps=3.3 w=1.08 l=0.18
X101 XA0.XA6.MN3.S CK_SAMPLE AVSS AVSS sky130_fd_pr__nfet_01v8 ad=0.6156 pd=3.3 as=0.6156 ps=3.3 w=1.08 l=0.18
X102 XB1.XA1.Y XB1.XA1.MP0.G AVDD AVDD sky130_fd_pr__pfet_01v8 ad=0.6156 pd=3.3 as=0.6156 ps=3.3 w=1.08 l=0.18
X103 XA1.XA1.XA5.MN2.S XA1.XA1.XA4.LCK_N XA1.XA1.XA5.MN1.S AVSS sky130_fd_pr__nfet_01v8 ad=0.6156 pd=3.3 as=0.6156 ps=3.3 w=1.08 l=0.18
X104 XA1.XA1.XA5.MP2.S EN XA1.XA1.XA5.MP1.S AVDD sky130_fd_pr__pfet_01v8 ad=0.6156 pd=3.3 as=0.6156 ps=3.3 w=1.08 l=0.18
X105 XA3.XA6.Y D<4> XA3.XA6.MP3.S AVDD sky130_fd_pr__pfet_01v8 ad=0.6156 pd=3.3 as=0.6156 ps=3.3 w=1.08 l=0.18
X106 XA3.XA6.Y CK_SAMPLE XA3.XA6.MN3.S AVSS sky130_fd_pr__nfet_01v8 ad=0.6156 pd=3.3 as=0.6156 ps=3.3 w=1.08 l=0.18
X107 XDAC2.CP<2> XA4.CP0 VREF AVDD sky130_fd_pr__pfet_01v8 ad=0.6156 pd=3.3 as=0.6156 ps=3.3 w=1.08 l=0.18
X108 D<3> XA4.CN1 VREF AVDD sky130_fd_pr__pfet_01v8 ad=0.6156 pd=3.3 as=0.6156 ps=3.3 w=1.08 l=0.18
X109 AVDD AVDD AVDD AVDD sky130_fd_pr__pfet_01v8 ad=0.6156 pd=3.3 as=0 ps=0 w=1.08 l=0.18
X110 XDAC2.CP<8> XDAC1.CP<8> AVSS AVSS sky130_fd_pr__nfet_01v8 ad=0.6156 pd=3.3 as=0.6156 ps=3.3 w=1.08 l=0.18
X111 XA1.ENO XA1.XA1.XA1.MP3.G AVSS AVSS sky130_fd_pr__nfet_01v8 ad=0.6156 pd=3.3 as=0.6156 ps=3.3 w=1.08 l=0.18
X112 AVSS XA3.CP0 XDAC2.CP<3> AVSS sky130_fd_pr__nfet_01v8 ad=0.6156 pd=3.3 as=0.6156 ps=3.3 w=1.08 l=0.18
X113 AVDD XA1.XA1.XA1.MP3.G XA1.XA1.XA1.MP3.S AVDD sky130_fd_pr__pfet_01v8 ad=0.6156 pd=3.3 as=0.6156 ps=3.3 w=1.08 l=0.18
X114 XA6.CN1 XA6.XA2.A AVSS AVSS sky130_fd_pr__nfet_01v8 ad=0.6156 pd=3.3 as=0.6156 ps=3.3 w=1.08 l=0.18
X115 VREF XA3.CP0 XDAC2.CP<3> AVDD sky130_fd_pr__pfet_01v8 ad=0.6156 pd=3.3 as=0.6156 ps=3.3 w=1.08 l=0.18
X116 XA4.XA1.CHL_OP XA3.ENO XA4.XA1.XA4.MN2.S AVSS sky130_fd_pr__nfet_01v8 ad=0.6156 pd=3.3 as=0.6156 ps=3.3 w=1.08 l=0.18
X117 XA0.XA9.Y XA0.XA6.Y XA0.XA9.MN1.S AVSS sky130_fd_pr__nfet_01v8 ad=0.6156 pd=3.3 as=0.6156 ps=3.3 w=1.08 l=0.18
X118 AVSS XA3.CN1 D<4> AVSS sky130_fd_pr__nfet_01v8 ad=0.6156 pd=3.3 as=0.6156 ps=3.3 w=1.08 l=0.18
X119 XA4.XA6.Y D<3> XA4.XA6.MP3.S AVDD sky130_fd_pr__pfet_01v8 ad=0.6156 pd=3.3 as=0.6156 ps=3.3 w=1.08 l=0.18
X120 AVSS CK_SAMPLE XA0.XA6.MN1.S AVSS sky130_fd_pr__nfet_01v8 ad=0.6156 pd=3.3 as=0.6156 ps=3.3 w=1.08 l=0.18
X121 VREF XA3.CN1 D<4> AVDD sky130_fd_pr__pfet_01v8 ad=0.6156 pd=3.3 as=0.6156 ps=3.3 w=1.08 l=0.18
X122 XB2.XA4.GNG XB2.CKN XB2.M1.G AVDD sky130_fd_pr__pfet_01v8 ad=0.6156 pd=3.3 as=0.6156 ps=3.3 w=1.08 l=0.18
X123 XA4.XA1.XA1.MN2.S XA0.CMP_ON AVSS AVSS sky130_fd_pr__nfet_01v8 ad=0.6156 pd=3.3 as=0.6156 ps=3.3 w=1.08 l=0.18
X124 SAR_IP XB1.M1.G SARP AVSS sky130_fd_pr__nfet_01v8 ad=0.6156 pd=3.3 as=0.6156 ps=3.3 w=1.08 l=0.18
X125 AVDD XB1.M1.G XB1.XA4.GNG AVDD sky130_fd_pr__pfet_01v8 ad=0.6156 pd=3.3 as=0.6156 ps=3.3 w=1.08 l=0.18
R13 D<7> XDAC2.XC0.XRES4.B sky130_fd_pr__res_generic_l1 w=0.38 l=0.3
X126 XA4.XA6.MN3.S CK_SAMPLE AVSS AVSS sky130_fd_pr__nfet_01v8 ad=0.6156 pd=3.3 as=0.6156 ps=3.3 w=1.08 l=0.18
X127 VREF XA4.CP0 XDAC2.CP<2> AVDD sky130_fd_pr__pfet_01v8 ad=0.6156 pd=3.3 as=0.6156 ps=3.3 w=1.08 l=0.18
X128 AVSS XA0.XA1.CHL_OP XDAC1.CP<8> AVSS sky130_fd_pr__nfet_01v8 ad=0.6156 pd=3.3 as=0.6156 ps=3.3 w=1.08 l=0.18
R14 XDAC2.CP<8> XDAC2.XC1.XRES4.B sky130_fd_pr__res_generic_l1 w=0.38 l=0.3
X129 XA5.XA1.XA5.MN2.S XA5.XA1.XA4.LCK_N XA5.XA1.XA5.MN1.S AVSS sky130_fd_pr__nfet_01v8 ad=0.6156 pd=3.3 as=0.6156 ps=3.3 w=1.08 l=0.18
X130 XA20.XA1.CKN XA20.XA11.Y AVDD AVDD sky130_fd_pr__pfet_01v8 ad=0.6156 pd=3.3 as=0.6156 ps=3.3 w=1.08 l=0.18
X131 XA1.XA2.A XA0.ENO XA1.XA1.XA5.MN2.S AVSS sky130_fd_pr__nfet_01v8 ad=0.6156 pd=3.3 as=0.6156 ps=3.3 w=1.08 l=0.18
X132 XB2.XA4.MN1.S XB2.CKN AVSS AVSS sky130_fd_pr__nfet_01v8 ad=0.6156 pd=3.3 as=0.6156 ps=3.3 w=1.08 l=0.18
X133 XA1.XA2.A EN XA1.XA1.XA5.MP2.S AVDD sky130_fd_pr__pfet_01v8 ad=0.6156 pd=3.3 as=0.6156 ps=3.3 w=1.08 l=0.18
X134 XB1.CKN CK_SAMPLE_BSSW AVSS AVSS sky130_fd_pr__nfet_01v8 ad=0.6156 pd=3.3 as=0.6156 ps=3.3 w=1.08 l=0.18
X135 AVDD AVDD AVDD AVDD sky130_fd_pr__pfet_01v8 ad=0.6156 pd=3.3 as=0 ps=0 w=1.08 l=0.18
X136 XDAC2.CP<2> XA4.CP0 AVSS AVSS sky130_fd_pr__nfet_01v8 ad=0.6156 pd=3.3 as=0.6156 ps=3.3 w=1.08 l=0.18
X137 VREF XA4.CN1 D<3> AVDD sky130_fd_pr__pfet_01v8 ad=0.6156 pd=3.3 as=0.6156 ps=3.3 w=1.08 l=0.18
X138 AVSS D<7> XDAC1.CP<9> AVSS sky130_fd_pr__nfet_01v8 ad=0.6156 pd=3.3 as=0.6156 ps=3.3 w=1.08 l=0.18
X139 XA5.ENO XA5.XA1.XA1.MP3.G AVSS AVSS sky130_fd_pr__nfet_01v8 ad=0.6156 pd=3.3 as=0.6156 ps=3.3 w=1.08 l=0.18
X140 AVDD AVDD AVDD AVDD sky130_fd_pr__pfet_01v8 ad=0.6156 pd=3.3 as=0 ps=0 w=1.08 l=0.18
X141 XA1.XA1.XA4.LCK_N XA1.ENO AVSS AVSS sky130_fd_pr__nfet_01v8 ad=0.6156 pd=3.3 as=0.6156 ps=3.3 w=1.08 l=0.18
X142 XA1.XA1.XA4.LCK_N XA1.ENO AVDD AVDD sky130_fd_pr__pfet_01v8 ad=0.6156 pd=3.3 as=0.6156 ps=3.3 w=1.08 l=0.18
X143 XA0.XA11.A XA0.XA9.Y AVSS AVSS sky130_fd_pr__nfet_01v8 ad=0.6156 pd=3.3 as=0.6156 ps=3.3 w=1.08 l=0.18
X144 XA4.XA9.Y XA4.XA6.Y XA4.XA9.MN1.S AVSS sky130_fd_pr__nfet_01v8 ad=0.6156 pd=3.3 as=0.6156 ps=3.3 w=1.08 l=0.18
X145 SAR_IN XB2.CKN XB2.XA3.B AVDD sky130_fd_pr__pfet_01v8 ad=0.6156 pd=3.3 as=0.6156 ps=3.3 w=1.08 l=0.18
X146 AVDD AVDD AVDD AVDD sky130_fd_pr__pfet_01v8 ad=0.6156 pd=3.3 as=0 ps=0 w=1.08 l=0.18
X147 XA20.XA2.VMR XA20.XA1.CK AVDD AVDD sky130_fd_pr__pfet_01v8 ad=0.6156 pd=3.3 as=0.6156 ps=3.3 w=1.08 l=0.18
X148 AVSS AVSS AVSS AVSS sky130_fd_pr__nfet_01v8 ad=0.6156 pd=3.3 as=0 ps=0 w=1.08 l=0.18
X149 XA6.DONE XA6.XA9.A AVSS AVSS sky130_fd_pr__nfet_01v8 ad=0.6156 pd=3.3 as=0.6156 ps=3.3 w=1.08 l=0.18
X150 AVSS CK_SAMPLE XA4.XA6.MN1.S AVSS sky130_fd_pr__nfet_01v8 ad=0.6156 pd=3.3 as=0.6156 ps=3.3 w=1.08 l=0.18
R15 m3_16112_308# XB2.XA3.B sky130_fd_pr__res_generic_m3 w=0.44 l=0.36
X151 XA20.XA1.MP0.S XA20.XA1.CKN AVSS AVSS sky130_fd_pr__nfet_01v8 ad=0.6156 pd=3.3 as=0.6156 ps=3.3 w=1.08 l=0.18
X152 SAR_IN XB2.XA3.MP0.S XB2.XA3.B AVSS sky130_fd_pr__nfet_01v8 ad=0.6156 pd=3.3 as=0.6156 ps=3.3 w=1.08 l=0.18
X153 AVSS XA6.CP0 XDAC2.CP<0> AVSS sky130_fd_pr__nfet_01v8 ad=0.6156 pd=3.3 as=0.6156 ps=3.3 w=1.08 l=0.18
X154 AVSS XA4.XA1.CHL_OP XA4.CP0 AVSS sky130_fd_pr__nfet_01v8 ad=0.6156 pd=3.3 as=0.6156 ps=3.3 w=1.08 l=0.18
X155 XA5.XA2.A XA5.EN XA5.XA1.XA5.MN2.S AVSS sky130_fd_pr__nfet_01v8 ad=0.6156 pd=3.3 as=0.6156 ps=3.3 w=1.08 l=0.18
R16 XDAC2.CP<5> XDAC2.X16ab.XRES4.B sky130_fd_pr__res_generic_l1 w=0.38 l=0.3
X156 AVSS XA4.CN1 D<3> AVSS sky130_fd_pr__nfet_01v8 ad=0.6156 pd=3.3 as=0.6156 ps=3.3 w=1.08 l=0.18
R17 D<7> XDAC2.XC0.XRES16.B sky130_fd_pr__res_generic_l1 w=0.38 l=0.3
X157 AVDD EN XA2.XA1.XA1.MP3.G AVDD sky130_fd_pr__pfet_01v8 ad=0.6156 pd=3.3 as=0.6156 ps=3.3 w=1.08 l=0.18
X158 XA5.XA1.XA4.LCK_N XA5.ENO AVSS AVSS sky130_fd_pr__nfet_01v8 ad=0.6156 pd=3.3 as=0.6156 ps=3.3 w=1.08 l=0.18
X159 XA20.XA1.MP0.S SARP XA20.XA1.MP0.S AVSS sky130_fd_pr__nfet_01v8 ad=0.6156 pd=3.3 as=7.3872 ps=39.6 w=1.08 l=0.18
X160 XA7.XA1.XA5.MN1.S XA0.CMP_ON AVSS AVSS sky130_fd_pr__nfet_01v8 ad=0.6156 pd=3.3 as=0.6156 ps=3.3 w=1.08 l=0.18
X161 XA7.XA1.XA5.MP1.S EN AVDD AVDD sky130_fd_pr__pfet_01v8 ad=0.6156 pd=3.3 as=0.6156 ps=3.3 w=1.08 l=0.18
X162 AVSS AVSS AVSS AVSS sky130_fd_pr__nfet_01v8 ad=0.6156 pd=3.3 as=0 ps=0 w=1.08 l=0.18
X163 XA4.XA11.A XA4.XA9.Y AVSS AVSS sky130_fd_pr__nfet_01v8 ad=0.6156 pd=3.3 as=0.6156 ps=3.3 w=1.08 l=0.18
X164 AVSS XA0.CMP_OP XA7.XA1.XA1.MN2.S AVSS sky130_fd_pr__nfet_01v8 ad=0.6156 pd=3.3 as=0.6156 ps=3.3 w=1.08 l=0.18
X165 D<6> XDAC2.CP<7> AVSS AVSS sky130_fd_pr__nfet_01v8 ad=0.6156 pd=3.3 as=0.6156 ps=3.3 w=1.08 l=0.18
X166 AVSS AVSS AVSS AVSS sky130_fd_pr__nfet_01v8 ad=0.6156 pd=3.3 as=0 ps=0 w=1.08 l=0.18
X167 XA7.XA1.XA1.MP3.S XA0.CMP_OP XA7.XA1.XA1.MP2.S AVDD sky130_fd_pr__pfet_01v8 ad=0.6156 pd=3.3 as=0.6156 ps=3.3 w=1.08 l=0.18
X168 XDAC2.CP<6> XDAC1.CP<6> AVSS AVSS sky130_fd_pr__nfet_01v8 ad=0.6156 pd=3.3 as=0.6156 ps=3.3 w=1.08 l=0.18
X169 D<6> XDAC2.CP<7> VREF AVDD sky130_fd_pr__pfet_01v8 ad=0.6156 pd=3.3 as=0.6156 ps=3.3 w=1.08 l=0.18
X170 XA6.XA1.XA5.MP2.S EN XA6.XA1.XA5.MP1.S AVDD sky130_fd_pr__pfet_01v8 ad=0.6156 pd=3.3 as=0.6156 ps=3.3 w=1.08 l=0.18
X171 XA6.XA9.MN1.S XA6.XA9.A AVSS AVSS sky130_fd_pr__nfet_01v8 ad=0.6156 pd=3.3 as=0.6156 ps=3.3 w=1.08 l=0.18
X172 XDAC2.CP<6> XDAC1.CP<6> VREF AVDD sky130_fd_pr__pfet_01v8 ad=0.6156 pd=3.3 as=0.6156 ps=3.3 w=1.08 l=0.18
X173 XA2.XA1.XA4.MP1.S EN AVDD AVDD sky130_fd_pr__pfet_01v8 ad=0.6156 pd=3.3 as=0.6156 ps=3.3 w=1.08 l=0.18
R18 XB1.XA3.B m3_7184_2420# sky130_fd_pr__res_generic_m3 w=0.44 l=0.36
X174 AVDD XA6.XA1.XA1.MP3.G XA6.XA1.XA1.MP3.S AVDD sky130_fd_pr__pfet_01v8 ad=0.6156 pd=3.3 as=0.6156 ps=3.3 w=1.08 l=0.18
X175 XA6.XA6.MN1.S CK_SAMPLE AVSS AVSS sky130_fd_pr__nfet_01v8 ad=0.6156 pd=3.3 as=0.6156 ps=3.3 w=1.08 l=0.18
X176 AVDD AVDD AVDD AVDD sky130_fd_pr__pfet_01v8 ad=0.6156 pd=3.3 as=0 ps=0 w=1.08 l=0.18
X177 XA7.XA1.CHL_OP XA6.ENO XA7.XA1.XA4.MN2.S AVSS sky130_fd_pr__nfet_01v8 ad=0.6156 pd=3.3 as=0.6156 ps=3.3 w=1.08 l=0.18
X178 XA7.XA1.CHL_OP EN XA7.XA1.XA4.MP2.S AVDD sky130_fd_pr__pfet_01v8 ad=0.6156 pd=3.3 as=0.6156 ps=3.3 w=1.08 l=0.18
X179 XA1.XA6.Y CK_SAMPLE XA1.XA6.MN3.S AVSS sky130_fd_pr__nfet_01v8 ad=0.6156 pd=3.3 as=0.6156 ps=3.3 w=1.08 l=0.18
X180 XA6.CEO XA6.XA11.Y AVSS AVSS sky130_fd_pr__nfet_01v8 ad=0.6156 pd=3.3 as=0.6156 ps=3.3 w=1.08 l=0.18
X181 XA1.XA6.Y D<6> XA1.XA6.MP3.S AVDD sky130_fd_pr__pfet_01v8 ad=0.6156 pd=3.3 as=0.6156 ps=3.3 w=1.08 l=0.18
X182 SAR_IN XB2.M1.G SARN AVSS sky130_fd_pr__nfet_01v8 ad=0.6156 pd=3.3 as=0.6156 ps=3.3 w=1.08 l=0.18
X183 VREF XA0.XA2.A D<7> AVDD sky130_fd_pr__pfet_01v8 ad=0.6156 pd=3.3 as=0.6156 ps=3.3 w=1.08 l=0.18
X184 XA6.CP0 XA6.XA1.CHL_OP AVSS AVSS sky130_fd_pr__nfet_01v8 ad=0.6156 pd=3.3 as=0.6156 ps=3.3 w=1.08 l=0.18
X185 XDAC1.CP<9> D<7> VREF AVDD sky130_fd_pr__pfet_01v8 ad=0.6156 pd=3.3 as=0.6156 ps=3.3 w=1.08 l=0.18
X186 AVDD XB1.CKN XB1.XA3.MP0.S AVDD sky130_fd_pr__pfet_01v8 ad=0.6156 pd=3.3 as=0.6156 ps=3.3 w=1.08 l=0.18
X187 XA7.XA1.XA1.MN2.S XA0.CMP_ON AVSS AVSS sky130_fd_pr__nfet_01v8 ad=0.6156 pd=3.3 as=0.6156 ps=3.3 w=1.08 l=0.18
X188 AVSS XDAC1.CP<6> XDAC2.CP<6> AVSS sky130_fd_pr__nfet_01v8 ad=0.6156 pd=3.3 as=0.6156 ps=3.3 w=1.08 l=0.18
X189 SAR_IN XB2.M1.G SARN AVSS sky130_fd_pr__nfet_01v8 ad=0.6156 pd=3.3 as=0.6156 ps=3.3 w=1.08 l=0.18
X190 XA7.XA1.XA1.MP2.S XA0.CMP_ON XA7.ENO AVDD sky130_fd_pr__pfet_01v8 ad=0.6156 pd=3.3 as=0.6156 ps=3.3 w=1.08 l=0.18
X191 VREF XDAC1.CP<6> XDAC2.CP<6> AVDD sky130_fd_pr__pfet_01v8 ad=0.6156 pd=3.3 as=0.6156 ps=3.3 w=1.08 l=0.18
X192 XA0.XA1.XA4.MP2.S EN XA0.XA1.XA4.MP1.S AVDD sky130_fd_pr__pfet_01v8 ad=0.6156 pd=3.3 as=0.6156 ps=3.3 w=1.08 l=0.18
X193 XA2.XA1.XA5.MN2.S XA2.XA1.XA4.LCK_N XA2.XA1.XA5.MN1.S AVSS sky130_fd_pr__nfet_01v8 ad=0.6156 pd=3.3 as=0.6156 ps=3.3 w=1.08 l=0.18
X194 XA7.XA6.MN3.S CK_SAMPLE AVSS AVSS sky130_fd_pr__nfet_01v8 ad=0.6156 pd=3.3 as=0.6156 ps=3.3 w=1.08 l=0.18
R19 XDAC2.CP<6> XDAC2.X16ab.XRES16.B sky130_fd_pr__res_generic_l1 w=0.38 l=0.3
X195 XA7.XA6.MP3.S D<0> AVDD AVDD sky130_fd_pr__pfet_01v8 ad=0.6156 pd=3.3 as=0.6156 ps=3.3 w=1.08 l=0.18
X196 XDAC2.CP<1> XA5.CP0 AVSS AVSS sky130_fd_pr__nfet_01v8 ad=0.6156 pd=3.3 as=0.6156 ps=3.3 w=1.08 l=0.18
X197 AVSS XDAC2.CP<7> D<6> AVSS sky130_fd_pr__nfet_01v8 ad=0.6156 pd=3.3 as=0.6156 ps=3.3 w=1.08 l=0.18
X198 D<2> XA5.CN1 AVSS AVSS sky130_fd_pr__nfet_01v8 ad=0.6156 pd=3.3 as=0.6156 ps=3.3 w=1.08 l=0.18
X199 VREF XDAC2.CP<7> D<6> AVDD sky130_fd_pr__pfet_01v8 ad=0.6156 pd=3.3 as=0.6156 ps=3.3 w=1.08 l=0.18
X200 XA6.XA2.A EN XA6.XA1.XA5.MP2.S AVDD sky130_fd_pr__pfet_01v8 ad=0.6156 pd=3.3 as=0.6156 ps=3.3 w=1.08 l=0.18
X201 XA2.ENO XA2.XA1.XA1.MP3.G AVSS AVSS sky130_fd_pr__nfet_01v8 ad=0.6156 pd=3.3 as=0.6156 ps=3.3 w=1.08 l=0.18
X202 XA7.CN0 XA7.CP0 AVSS AVSS sky130_fd_pr__nfet_01v8 ad=0.6156 pd=3.3 as=0.6156 ps=3.3 w=1.08 l=0.18
X203 XA20.XA2.N1 SARN XA20.XA3.N2 AVSS sky130_fd_pr__nfet_01v8 ad=0.6156 pd=3.3 as=0.6156 ps=3.3 w=1.08 l=0.18
X204 XA7.CN0 XA7.CP0 VREF AVDD sky130_fd_pr__pfet_01v8 ad=0.6156 pd=3.3 as=0.6156 ps=3.3 w=1.08 l=0.18
X205 XA6.XA1.XA4.LCK_N XA6.ENO AVDD AVDD sky130_fd_pr__pfet_01v8 ad=0.6156 pd=3.3 as=0.6156 ps=3.3 w=1.08 l=0.18
X206 D<7> XA0.XA2.A VREF AVDD sky130_fd_pr__pfet_01v8 ad=0.6156 pd=3.3 as=0.6156 ps=3.3 w=1.08 l=0.18
X207 XA7.XA9.Y XA7.XA6.Y XA7.XA9.MN1.S AVSS sky130_fd_pr__nfet_01v8 ad=0.6156 pd=3.3 as=0.6156 ps=3.3 w=1.08 l=0.18
X208 AVDD XA7.XA6.Y XA7.XA9.Y AVDD sky130_fd_pr__pfet_01v8 ad=0.6156 pd=3.3 as=0.6156 ps=3.3 w=1.08 l=0.18
X209 XA5.XA6.Y CK_SAMPLE XA5.XA6.MN3.S AVSS sky130_fd_pr__nfet_01v8 ad=0.6156 pd=3.3 as=0.6156 ps=3.3 w=1.08 l=0.18
X210 XA0.CMP_OP XA20.XA2.VMR AVSS AVSS sky130_fd_pr__nfet_01v8 ad=0.6156 pd=3.3 as=0.6156 ps=3.3 w=1.08 l=0.18
X211 AVSS CK_SAMPLE XA7.XA6.MN1.S AVSS sky130_fd_pr__nfet_01v8 ad=0.6156 pd=3.3 as=0.6156 ps=3.3 w=1.08 l=0.18
X212 VREF XA2.XA1.CHL_OP XDAC1.CP<4> AVDD sky130_fd_pr__pfet_01v8 ad=0.6156 pd=3.3 as=0.6156 ps=3.3 w=1.08 l=0.18
X213 AVDD XA7.CN0 XA7.XA6.MP1.S AVDD sky130_fd_pr__pfet_01v8 ad=0.6156 pd=3.3 as=0.6156 ps=3.3 w=1.08 l=0.18
X214 AVSS XA5.CP0 XDAC2.CP<1> AVSS sky130_fd_pr__nfet_01v8 ad=0.6156 pd=3.3 as=0.6156 ps=3.3 w=1.08 l=0.18
X215 AVDD AVDD AVDD AVDD sky130_fd_pr__pfet_01v8 ad=0.6156 pd=3.3 as=0 ps=0 w=1.08 l=0.18
X216 XA2.XA2.A XA1.ENO XA2.XA1.XA5.MN2.S AVSS sky130_fd_pr__nfet_01v8 ad=0.6156 pd=3.3 as=0.6156 ps=3.3 w=1.08 l=0.18
X217 AVSS XA7.XA1.CHL_OP XA7.CP0 AVSS sky130_fd_pr__nfet_01v8 ad=0.6156 pd=3.3 as=0.6156 ps=3.3 w=1.08 l=0.18
X218 XA20.XA3.N2 SARN XA20.XA2.N1 AVSS sky130_fd_pr__nfet_01v8 ad=0.6156 pd=3.3 as=0.6156 ps=3.3 w=1.08 l=0.18
X219 AVSS XA5.CN1 D<2> AVSS sky130_fd_pr__nfet_01v8 ad=0.6156 pd=3.3 as=0.6156 ps=3.3 w=1.08 l=0.18
X220 VREF XA2.XA2.A XDAC2.CP<5> AVDD sky130_fd_pr__pfet_01v8 ad=0.6156 pd=3.3 as=0.6156 ps=3.3 w=1.08 l=0.18
X221 VREF XA7.XA1.CHL_OP XA7.CP0 AVDD sky130_fd_pr__pfet_01v8 ad=0.6156 pd=3.3 as=0.6156 ps=3.3 w=1.08 l=0.18
X222 SAR_IP XB1.TIE_L SARN AVSS sky130_fd_pr__nfet_01v8 ad=0.6156 pd=3.3 as=0.6156 ps=3.3 w=1.08 l=0.18
X223 XA2.XA1.XA4.LCK_N XA2.ENO AVSS AVSS sky130_fd_pr__nfet_01v8 ad=0.6156 pd=3.3 as=0.6156 ps=3.3 w=1.08 l=0.18
X224 AVSS XA7.CN1 D<0> AVSS sky130_fd_pr__nfet_01v8 ad=0.6156 pd=3.3 as=0.6156 ps=3.3 w=1.08 l=0.18
R20 XDAC1.XC1.XRES1A.B XDAC1.CP<8> sky130_fd_pr__res_generic_l1 w=0.38 l=0.3
X225 XA20.XA2.CO XA20.XA2.VMR XA20.XA2.N2 AVSS sky130_fd_pr__nfet_01v8 ad=0.6156 pd=3.3 as=0.6156 ps=3.3 w=1.08 l=0.18
X226 VREF XA7.CN1 D<0> AVDD sky130_fd_pr__pfet_01v8 ad=0.6156 pd=3.3 as=0.6156 ps=3.3 w=1.08 l=0.18
X227 XA7.XA11.A XA7.XA9.Y AVSS AVSS sky130_fd_pr__nfet_01v8 ad=0.6156 pd=3.3 as=0.6156 ps=3.3 w=1.08 l=0.18
X228 XDAC1.CP<4> XA2.XA1.CHL_OP VREF AVDD sky130_fd_pr__pfet_01v8 ad=0.6156 pd=3.3 as=0.6156 ps=3.3 w=1.08 l=0.18
X229 XA7.XA11.A XA7.XA9.Y AVDD AVDD sky130_fd_pr__pfet_01v8 ad=0.6156 pd=3.3 as=0.6156 ps=3.3 w=1.08 l=0.18
X230 D<1> XA6.CN1 VREF AVDD sky130_fd_pr__pfet_01v8 ad=0.6156 pd=3.3 as=0.6156 ps=3.3 w=1.08 l=0.18
X231 XA0.DONE XA0.XA9.A AVDD AVDD sky130_fd_pr__pfet_01v8 ad=0.6156 pd=3.3 as=0.6156 ps=3.3 w=1.08 l=0.18
X232 XDAC2.CP<0> XA6.CP0 VREF AVDD sky130_fd_pr__pfet_01v8 ad=0.6156 pd=3.3 as=0.6156 ps=3.3 w=1.08 l=0.18
X233 XDAC2.CP<5> XA2.XA2.A VREF AVDD sky130_fd_pr__pfet_01v8 ad=0.6156 pd=3.3 as=0.6156 ps=3.3 w=1.08 l=0.18
X234 XA5.XA1.XA5.MP1.S EN AVDD AVDD sky130_fd_pr__pfet_01v8 ad=0.6156 pd=3.3 as=0.6156 ps=3.3 w=1.08 l=0.18
X235 SAR_IP XB1.TIE_L SARN AVSS sky130_fd_pr__nfet_01v8 ad=0.6156 pd=3.3 as=0.6156 ps=3.3 w=1.08 l=0.18
R21 XDAC1.XC32a<0>.XRES1A.B AVSS sky130_fd_pr__res_generic_l1 w=0.38 l=0.3
X236 VREF XDAC1.CP<8> XDAC2.CP<8> AVDD sky130_fd_pr__pfet_01v8 ad=0.6156 pd=3.3 as=0.6156 ps=3.3 w=1.08 l=0.18
X237 XA5.XA1.XA1.MP3.S XA0.CMP_OP XA5.XA1.XA1.MP2.S AVDD sky130_fd_pr__pfet_01v8 ad=0.6156 pd=3.3 as=0.6156 ps=3.3 w=1.08 l=0.18
X238 XA3.XA1.XA1.MN2.S XA2.ENO XA3.XA1.XA1.MP3.G AVSS sky130_fd_pr__nfet_01v8 ad=0.6156 pd=3.3 as=0.6156 ps=3.3 w=1.08 l=0.18
X239 AVDD EN XA3.XA1.XA1.MP3.G AVDD sky130_fd_pr__pfet_01v8 ad=0.6156 pd=3.3 as=0.6156 ps=3.3 w=1.08 l=0.18
X240 XA6.XA6.Y D<1> XA6.XA6.MP3.S AVDD sky130_fd_pr__pfet_01v8 ad=0.6156 pd=3.3 as=0.6156 ps=3.3 w=1.08 l=0.18
X241 XA20.XA12.Y XA7.CEO AVSS AVSS sky130_fd_pr__nfet_01v8 ad=0.6156 pd=3.3 as=0.6156 ps=3.3 w=1.08 l=0.18
R22 m3_416_3300# XB1.XA4.GNG sky130_fd_pr__res_generic_m3 w=0.44 l=0.36
X242 VREF XA6.CP0 XDAC2.CP<0> AVDD sky130_fd_pr__pfet_01v8 ad=0.6156 pd=3.3 as=0.6156 ps=3.3 w=1.08 l=0.18
X243 AVDD AVDD AVDD AVDD sky130_fd_pr__pfet_01v8 ad=0.6156 pd=3.3 as=0 ps=0 w=1.08 l=0.18
X244 D<5> XDAC2.CP<5> AVSS AVSS sky130_fd_pr__nfet_01v8 ad=0.6156 pd=3.3 as=0.6156 ps=3.3 w=1.08 l=0.18
R23 m3_16112_1364# XB2.XA3.B sky130_fd_pr__res_generic_m3 w=0.44 l=0.36
X245 XA5.XA1.CHL_OP EN XA5.XA1.XA4.MP2.S AVDD sky130_fd_pr__pfet_01v8 ad=0.6156 pd=3.3 as=0.6156 ps=3.3 w=1.08 l=0.18
X246 AVDD XA20.XA1.CK XA20.XA4.MP0.S AVSS sky130_fd_pr__nfet_01v8 ad=0.6156 pd=3.3 as=0.6156 ps=3.3 w=1.08 l=0.18
X247 XDAC2.CP<4> XDAC1.CP<4> AVSS AVSS sky130_fd_pr__nfet_01v8 ad=0.6156 pd=3.3 as=0.6156 ps=3.3 w=1.08 l=0.18
X248 XA3.XA1.XA4.MN1.S XA0.CMP_OP AVSS AVSS sky130_fd_pr__nfet_01v8 ad=0.6156 pd=3.3 as=0.6156 ps=3.3 w=1.08 l=0.18
R24 m3_16112_4532# XB2.XA3.B sky130_fd_pr__res_generic_m3 w=0.44 l=0.36
X249 AVDD EN XA4.XA1.XA1.MP3.G AVDD sky130_fd_pr__pfet_01v8 ad=0.6156 pd=3.3 as=0.6156 ps=3.3 w=1.08 l=0.18
X250 XA3.XA1.XA4.MP1.S EN AVDD AVDD sky130_fd_pr__pfet_01v8 ad=0.6156 pd=3.3 as=0.6156 ps=3.3 w=1.08 l=0.18
X251 XA2.XA11.Y XA1.CEO XA2.XA11.MP1.S AVDD sky130_fd_pr__pfet_01v8 ad=0.6156 pd=3.3 as=0.6156 ps=3.3 w=1.08 l=0.18
X252 VREF XA6.CN1 D<1> AVDD sky130_fd_pr__pfet_01v8 ad=0.6156 pd=3.3 as=0.6156 ps=3.3 w=1.08 l=0.18