* NGSPICE file created from tt_um_TT06_SAR_wulffern.ext - technology: sky130A

* Replacing the lpe port list (../tech/scripts/fixlpe)
.subckt tt_um_TT06_SAR_wulffern VPWR VGND ui_in[7] ui_in[6] ui_in[5] ui_in[4] ui_in[3] ui_in[2] ui_in[1] ui_in[0]
+ uo_out[7] uo_out[6] uo_out[5] uo_out[4] uo_out[3] uo_out[2] uo_out[1] uo_out[0] uio_in[7] uio_in[6] uio_in[5] uio_in[4] uio_in[3] uio_in[2] uio_in[1] uio_in[0]
+ uio_out[7] uio_out[6] uio_out[5] uio_out[4] uio_out[3] uio_out[2] uio_out[1] uio_out[0] uio_oe[7] uio_oe[6] uio_oe[5] uio_oe[4] uio_oe[3] uio_oe[2] uio_oe[1] uio_oe[0] ua[7] ua[6] ua[5] ua[4] ua[3] ua[2] ua[1] ua[0]
+ ena clk rst_n
*.subckt tt_um_TT06_SAR_wulffern ena rst_n ua[2] ua[3] ua[4] ua[5] ua[6] ua[7]
*+ ui_in[1] ui_in[2] ui_in[3] ui_in[4] ui_in[5] ui_in[6] ui_in[7] uio_in[0] uio_in[1]
*+ uio_in[2] uio_in[3] uio_in[4] uio_in[5] uio_in[6] uio_in[7] uio_oe[0] uio_oe[1]
*+ uio_oe[2] uio_oe[3] uio_oe[4] uio_oe[5] uio_oe[6] uio_oe[7] uio_out[0] uio_out[1]
*+ uio_out[2] uio_out[3] uio_out[4] uio_out[5] uio_out[6] uio_out[7] uo_out[2] uo_out[7]
*+ ui_in[0] uo_out[6] uo_out[4] ua[0] uo_out[5] clk uo_out[1] ua[1] uo_out[0] uo_out[3]
*+ VPWR VGND
X0 SUNSAR_SAR8B_CV_0.XDAC2.CP<6> SUNSAR_SAR8B_CV_0.XDAC1.CP<6> VGND VGND sky130_fd_pr__nfet_01v8 ad=0.378 pd=1.78 as=0.6156 ps=3.3 w=1.08 l=0.18
X1 VPWR SUNSAR_SAR8B_CV_0.XA6.XA1.XA1.MP0.S SUNSAR_SAR8B_CV_0.XA6.XA1.XA1.MP3.S VPWR sky130_fd_pr__pfet_01v8 ad=0.6156 pd=3.3 as=0.6156 ps=3.3 w=1.08 l=0.18
X2 SUNSAR_SAR8B_CV_0.XA0.XA11.MP0.D SUNSAR_SAR8B_CV_0.XA0.XA10.Y VPWR VPWR sky130_fd_pr__pfet_01v8 ad=0.378 pd=1.78 as=0.6156 ps=3.3 w=1.08 l=0.18
X3 SUNSAR_SAR8B_CV_0.XDAC2.CP<6> SUNSAR_SAR8B_CV_0.XDAC1.CP<6> VPWR VPWR sky130_fd_pr__pfet_01v8 ad=0.378 pd=1.78 as=0.6156 ps=3.3 w=1.08 l=0.18
X4 VGND SUNSAR_SAR8B_CV_0.XA4.XA1.CHL_OP SUNSAR_SAR8B_CV_0.XA4.CP0 VGND sky130_fd_pr__nfet_01v8 ad=0.378 pd=1.78 as=0.378 ps=1.78 w=1.08 l=0.18
R0 TIE_L1 TIE_L sky130_fd_pr__res_generic_m4 w=0.3 l=0.3
X5 SUNSAR_SAR8B_CV_0.XA20.XA4.MN0.D SUNSAR_SAR8B_CV_0.SARN SUNSAR_SAR8B_CV_0.XA20.XA4.MN0.D VGND sky130_fd_pr__nfet_01v8 ad=0.378 pd=1.78 as=4.536 ps=21.36 w=1.08 l=0.18
X6 SUNSAR_CAPT8B_CV_0.XG12.XA4.A SUNSAR_CAPT8B_CV_0.XG12.XA3.Y VGND VGND sky130_fd_pr__nfet_01v8 ad=0.6156 pd=3.3 as=0.6156 ps=3.3 w=1.08 l=0.18
X7 SUNSAR_SAR8B_CV_0.XA20.XA3.N2 SUNSAR_SAR8B_CV_0.XA20.XA1.CK VPWR VPWR sky130_fd_pr__pfet_01v8 ad=0.378 pd=1.78 as=0.378 ps=1.78 w=1.08 l=0.18
R1 SUNSAR_SAR8B_CV_0.XDAC1.XC1.XRES1B.B SUNSAR_SAR8B_CV_0.XDAC1.CP<8> sky130_fd_pr__res_generic_l1 w=0.34 l=0.34
X8 VGND SUNSAR_SAR8B_CV_0.XA0.CMP_OP SUNSAR_SAR8B_CV_0.XA7.XA1.XA1.MN1.D VGND sky130_fd_pr__nfet_01v8 ad=0.6156 pd=3.3 as=0.6156 ps=3.3 w=1.08 l=0.18
X9 SUNSAR_CAPT8B_CV_0.XG12.XA4.A SUNSAR_CAPT8B_CV_0.XG12.XA3.Y VPWR VPWR sky130_fd_pr__pfet_01v8 ad=0.6156 pd=3.3 as=0.6156 ps=3.3 w=1.08 l=0.18
X10 SUNSAR_SAR8B_CV_0.XA4.XA11.Y SUNSAR_SAR8B_CV_0.XA3.CEO SUNSAR_SAR8B_CV_0.XA4.XA11.MP0.D VPWR sky130_fd_pr__pfet_01v8 ad=0.6156 pd=3.3 as=0.378 ps=1.78 w=1.08 l=0.18
X11 VGND SUNSAR_SAR8B_CV_0.XA1.XA1.CHL_ON SUNSAR_SAR8B_CV_0.XDAC2.CP<7> VGND sky130_fd_pr__nfet_01v8 ad=0.6156 pd=3.3 as=0.378 ps=1.78 w=1.08 l=0.18
X12 SUNSAR_SAR8B_CV_0.XA7.XA1.XA1.MP3.S SUNSAR_SAR8B_CV_0.XA0.CMP_OP SUNSAR_SAR8B_CV_0.XA7.XA1.XA1.MP1.D VPWR sky130_fd_pr__pfet_01v8 ad=0.6156 pd=3.3 as=0.6156 ps=3.3 w=1.08 l=0.18
X13 SUNSAR_SAR8B_CV_0.XA0.XA6.MP3.S SUNSAR_SAR8B_CV_0.XDAC1.CP<9> VPWR VPWR sky130_fd_pr__pfet_01v8 ad=0.378 pd=1.78 as=0.378 ps=1.78 w=1.08 l=0.18
X14 VPWR SUNSAR_SAR8B_CV_0.XA1.XA1.CHL_ON SUNSAR_SAR8B_CV_0.XDAC2.CP<7> VPWR sky130_fd_pr__pfet_01v8 ad=0.6156 pd=3.3 as=0.378 ps=1.78 w=1.08 l=0.18
R2 SUNSAR_SAR8B_CV_0.XB2.XA4.GNG m3_24750_4688# sky130_fd_pr__res_generic_m3 w=0.4 l=0.36
X15 SUNSAR_SAR8B_CV_0.XA3.XA1.XA5.MN1.D SUNSAR_SAR8B_CV_0.XA3.XA1.XA2.Y SUNSAR_SAR8B_CV_0.XA3.XA1.XA5.MN0.D VGND sky130_fd_pr__nfet_01v8 ad=0.378 pd=1.78 as=0.378 ps=1.78 w=1.08 l=0.18
R3 SUNSAR_SAR8B_CV_0.XDAC1.X16ab.XRES8.B SUNSAR_SAR8B_CV_0.XDAC1.CP<4> sky130_fd_pr__res_generic_l1 w=0.34 l=0.34
X16 VGND VGND VGND VGND sky130_fd_pr__nfet_01v8 ad=0.6156 pd=3.3 as=240.8616 ps=1.269k w=1.08 l=0.18
X17 SUNSAR_CAPT8B_CV_0.XI14.QN SUNSAR_CAPT8B_CV_0.XI14.XA2.Y SUNSAR_CAPT8B_CV_0.XI14.XA6.MN0.D VGND sky130_fd_pr__nfet_01v8 ad=0.6156 pd=3.3 as=0.378 ps=1.78 w=1.08 l=0.18
X18 VPWR VPWR VPWR VPWR sky130_fd_pr__pfet_01v8 ad=0.6156 pd=3.3 as=244.62 ps=1.28028k w=1.08 l=0.18
X19 SUNSAR_SAR8B_CV_0.XA4.XA6.Y SUNSAR_SAR8B_CV_0.D<3> SUNSAR_SAR8B_CV_0.XA4.XA6.MP3.S VPWR sky130_fd_pr__pfet_01v8 ad=0.6156 pd=3.3 as=0.378 ps=1.78 w=1.08 l=0.18
X20 VGND SUNSAR_SAR8B_CV_0.CK_SAMPLE SUNSAR_SAR8B_CV_0.XA4.XA6.MN1.S VGND sky130_fd_pr__nfet_01v8 ad=0.378 pd=1.78 as=0.378 ps=1.78 w=1.08 l=0.18
X21 SUNSAR_SAR8B_CV_0.XDAC1.CP<8> SUNSAR_SAR8B_CV_0.XA0.XA1.CHL_OP VPWR VPWR sky130_fd_pr__pfet_01v8 ad=0.378 pd=1.78 as=0.6156 ps=3.3 w=1.08 l=0.18
X22 VGND clk SUNSAR_CAPT8B_CV_0.XA4.MN0.S VGND sky130_fd_pr__nfet_01v8 ad=0.378 pd=1.78 as=0.6156 ps=3.3 w=1.08 l=0.18
X23 VPWR SUNSAR_SAR8B_CV_0.XA3.CN1 SUNSAR_SAR8B_CV_0.D<4> VPWR sky130_fd_pr__pfet_01v8 ad=0.378 pd=1.78 as=0.378 ps=1.78 w=1.08 l=0.18
X24 VGND VGND VGND VGND sky130_fd_pr__nfet_01v8 ad=0.6156 pd=3.3 as=0 ps=0 w=1.08 l=0.18
X25 VPWR VPWR VPWR VPWR sky130_fd_pr__pfet_01v8 ad=0.6156 pd=3.3 as=0 ps=0 w=1.08 l=0.18
X26 SUNSAR_SAR8B_CV_0.XA20.XA10.B SUNSAR_SAR8B_CV_0.XA7.CEO VGND VGND sky130_fd_pr__nfet_01v8 ad=0.6156 pd=3.3 as=0.6156 ps=3.3 w=1.08 l=0.18
X27 VGND SUNSAR_SAR8B_CV_0.D<7> SUNSAR_SAR8B_CV_0.XDAC1.CP<9> VGND sky130_fd_pr__nfet_01v8 ad=0.6156 pd=3.3 as=0.378 ps=1.78 w=1.08 l=0.18
X28 SUNSAR_SAR8B_CV_0.D<5> SUNSAR_SAR8B_CV_0.XDAC2.CP<5> VPWR VPWR sky130_fd_pr__pfet_01v8 ad=0.378 pd=1.78 as=0.378 ps=1.78 w=1.08 l=0.18
X29 SUNSAR_SAR8B_CV_0.XA0.XA1.CHL_ON SUNSAR_SAR8B_CV_0.EN SUNSAR_SAR8B_CV_0.XA0.XA1.XA5.MP1.D VPWR sky130_fd_pr__pfet_01v8 ad=0.6156 pd=3.3 as=0.378 ps=1.78 w=1.08 l=0.18
X30 SUNSAR_SAR8B_CV_0.XA7.CN1 SUNSAR_SAR8B_CV_0.XA7.XA1.CHL_ON VGND VGND sky130_fd_pr__nfet_01v8 ad=0.378 pd=1.78 as=0.378 ps=1.78 w=1.08 l=0.18
X31 SUNSAR_SAR8B_CV_0.XA0.XA10.A SUNSAR_SAR8B_CV_0.XA0.XA6.Y SUNSAR_SAR8B_CV_0.XA0.XA9.MN0.D VGND sky130_fd_pr__nfet_01v8 ad=0.6156 pd=3.3 as=0.378 ps=1.78 w=1.08 l=0.18
X32 SUNSAR_SAR8B_CV_0.XA2.XA10.A SUNSAR_SAR8B_CV_0.XA2.XA8.A VPWR VPWR sky130_fd_pr__pfet_01v8 ad=0.378 pd=1.78 as=0.6156 ps=3.3 w=1.08 l=0.18
X33 VPWR SUNSAR_SAR8B_CV_0.XA6.CN1 SUNSAR_SAR8B_CV_0.D<1> VPWR sky130_fd_pr__pfet_01v8 ad=0.6156 pd=3.3 as=0.378 ps=1.78 w=1.08 l=0.18
X34 VGND SUNSAR_SAR8B_CV_0.XA6.CN1 SUNSAR_SAR8B_CV_0.D<1> VGND sky130_fd_pr__nfet_01v8 ad=0.378 pd=1.78 as=0.378 ps=1.78 w=1.08 l=0.18
X35 SUNSAR_SAR8B_CV_0.XA7.CN1 SUNSAR_SAR8B_CV_0.XA7.XA1.CHL_ON VPWR VPWR sky130_fd_pr__pfet_01v8 ad=0.378 pd=1.78 as=0.378 ps=1.78 w=1.08 l=0.18
X36 SUNSAR_CAPT8B_CV_0.XA6.XA1.MN0.D SUNSAR_CAPT8B_CV_0.XA4.Y VGND VGND sky130_fd_pr__nfet_01v8 ad=0.378 pd=1.78 as=0.6156 ps=3.3 w=1.08 l=0.18
X37 SUNSAR_SAR8B_CV_0.XA20.XA4.MN0.D SUNSAR_SAR8B_CV_0.SARN SUNSAR_SAR8B_CV_0.XA20.XA4.MN0.D VGND sky130_fd_pr__nfet_01v8 ad=0.378 pd=1.78 as=0 ps=0 w=1.08 l=0.18
X38 SUNSAR_SAR8B_CV_0.XA4.CEO SUNSAR_SAR8B_CV_0.XA4.XA11.Y VPWR VPWR sky130_fd_pr__pfet_01v8 ad=0.6156 pd=3.3 as=0.6156 ps=3.3 w=1.08 l=0.18
X39 VPWR SUNSAR_SAR8B_CV_0.XA6.XA6.Y SUNSAR_SAR8B_CV_0.XA6.XA10.A VPWR sky130_fd_pr__pfet_01v8 ad=0.6156 pd=3.3 as=0.378 ps=1.78 w=1.08 l=0.18
X40 VGND SUNSAR_SAR8B_CV_0.XDAC1.CP<8> SUNSAR_SAR8B_CV_0.XDAC2.CP<8> VGND sky130_fd_pr__nfet_01v8 ad=0.6156 pd=3.3 as=0.378 ps=1.78 w=1.08 l=0.18
X41 SUNSAR_SAR8B_CV_0.XDAC2.CP<4> SUNSAR_SAR8B_CV_0.XDAC1.CP<4> VPWR VPWR sky130_fd_pr__pfet_01v8 ad=0.378 pd=1.78 as=0.378 ps=1.78 w=1.08 l=0.18
R4 SUNSAR_SAR8B_CV_0.XDAC2.CP<1> SUNSAR_SAR8B_CV_0.XDAC2.XC32a<0>.XRES2.B sky130_fd_pr__res_generic_l1 w=0.34 l=0.34
X42 SUNSAR_CAPT8B_CV_0.XA3.Y SUNSAR_CAPT8B_CV_0.SUNSAR_IVX1_CV_0.Y VGND VGND sky130_fd_pr__nfet_01v8 ad=0.6156 pd=3.3 as=0.6156 ps=3.3 w=1.08 l=0.18
X43 SUNSAR_SAR8B_CV_0.XA1.XA1.CHL_OP SUNSAR_SAR8B_CV_0.XA0.ENO SUNSAR_SAR8B_CV_0.XA1.XA1.XA4.MN1.D VGND sky130_fd_pr__nfet_01v8 ad=0.6156 pd=3.3 as=0.378 ps=1.78 w=1.08 l=0.18
X44 SUNSAR_SAR8B_CV_0.XA1.XA1.CHL_OP SUNSAR_SAR8B_CV_0.EN SUNSAR_SAR8B_CV_0.XA1.XA1.XA4.MP1.D VPWR sky130_fd_pr__pfet_01v8 ad=0.6156 pd=3.3 as=0.378 ps=1.78 w=1.08 l=0.18
X45 VPWR SUNSAR_SAR8B_CV_0.XA6.CP0 SUNSAR_SAR8B_CV_0.XDAC2.CP<0> VPWR sky130_fd_pr__pfet_01v8 ad=0.6156 pd=3.3 as=0.378 ps=1.78 w=1.08 l=0.18
X46 SUNSAR_SAR8B_CV_0.D<5> SUNSAR_SAR8B_CV_0.XDAC2.CP<5> VPWR VPWR sky130_fd_pr__pfet_01v8 ad=0.378 pd=1.78 as=0.6156 ps=3.3 w=1.08 l=0.18
X47 VGND SUNSAR_SAR8B_CV_0.XA5.XA1.CHL_ON SUNSAR_SAR8B_CV_0.XA5.CN1 VGND sky130_fd_pr__nfet_01v8 ad=0.378 pd=1.78 as=0.378 ps=1.78 w=1.08 l=0.18
R5 SUNSAR_SAR8B_CV_0.D<7> SUNSAR_SAR8B_CV_0.XDAC2.XC0.XRES1A.B sky130_fd_pr__res_generic_l1 w=0.34 l=0.34
X48 VPWR SUNSAR_SAR8B_CV_0.XA5.XA1.CHL_ON SUNSAR_SAR8B_CV_0.XA5.CN1 VPWR sky130_fd_pr__pfet_01v8 ad=0.378 pd=1.78 as=0.378 ps=1.78 w=1.08 l=0.18
R6 SUNSAR_SAR8B_CV_0.XDAC2.CP<8> SUNSAR_SAR8B_CV_0.XDAC2.XC1.XRES1A.B sky130_fd_pr__res_generic_l1 w=0.34 l=0.34
X49 SUNSAR_SAR8B_CV_0.XA1.XA1.XA1.MN1.D SUNSAR_SAR8B_CV_0.XA0.ENO SUNSAR_SAR8B_CV_0.XA1.XA1.XA1.MP0.S VGND sky130_fd_pr__nfet_01v8 ad=0.6156 pd=3.3 as=0.6156 ps=3.3 w=1.08 l=0.18
X50 VGND SUNSAR_SAR8B_CV_0.XA7.CP0 SUNSAR_SAR8B_CV_0.XA7.CN0 VGND sky130_fd_pr__nfet_01v8 ad=0.378 pd=1.78 as=0.378 ps=1.78 w=1.08 l=0.18
X51 SUNSAR_SAR8B_CV_0.XB1.CKN SUNSAR_SAR8B_CV_0.CK_SAMPLE_BSSW VGND VGND sky130_fd_pr__nfet_01v8 ad=0.6156 pd=3.3 as=0.6156 ps=3.3 w=1.08 l=0.18
X52 VPWR SUNSAR_SAR8B_CV_0.EN SUNSAR_SAR8B_CV_0.XA1.XA1.XA1.MP0.S VPWR sky130_fd_pr__pfet_01v8 ad=0.6156 pd=3.3 as=0.6156 ps=3.3 w=1.08 l=0.18
X53 SUNSAR_SAR8B_CV_0.XA7.CN1 SUNSAR_SAR8B_CV_0.XA7.XA1.CHL_ON VGND VGND sky130_fd_pr__nfet_01v8 ad=0.378 pd=1.78 as=0.6156 ps=3.3 w=1.08 l=0.18
X54 SUNSAR_CAPT8B_CV_0.XF11.XA4.MP0.D SUNSAR_CAPT8B_CV_0.XF11.XA4.A VPWR VPWR sky130_fd_pr__pfet_01v8 ad=0.378 pd=1.78 as=0.6156 ps=3.3 w=1.08 l=0.18
X55 VPWR SUNSAR_SAR8B_CV_0.XA7.CP0 SUNSAR_SAR8B_CV_0.XA7.CN0 VPWR sky130_fd_pr__pfet_01v8 ad=0.378 pd=1.78 as=0.378 ps=1.78 w=1.08 l=0.18
X56 SUNSAR_SAR8B_CV_0.XA7.CN1 SUNSAR_SAR8B_CV_0.XA7.XA1.CHL_ON VPWR VPWR sky130_fd_pr__pfet_01v8 ad=0.378 pd=1.78 as=0.6156 ps=3.3 w=1.08 l=0.18
X57 SUNSAR_SAR8B_CV_0.XA20.XA1.MN0.D SUNSAR_SAR8B_CV_0.SARP SUNSAR_SAR8B_CV_0.XA20.XA1.MN0.D VGND sky130_fd_pr__nfet_01v8 ad=0.378 pd=1.78 as=4.536 ps=21.36 w=1.08 l=0.18
X58 SUNSAR_CAPT8B_CV_0.XD09.XA6.MN0.D SUNSAR_CAPT8B_CV_0.XD09.XA4.A VGND VGND sky130_fd_pr__nfet_01v8 ad=0.378 pd=1.78 as=0.6156 ps=3.3 w=1.08 l=0.18
X59 SUNSAR_CAPT8B_CV_0.XB07.XA3.MN0.D SUNSAR_SAR8B_CV_0.D<7> VGND VGND sky130_fd_pr__nfet_01v8 ad=0.378 pd=1.78 as=0.6156 ps=3.3 w=1.08 l=0.18
X60 SUNSAR_SAR8B_CV_0.XB1.XA1.Y SUNSAR_SAR8B_CV_0.XB1.XA1.MN0.G VPWR VPWR sky130_fd_pr__pfet_01v8 ad=0.6156 pd=3.3 as=0.6156 ps=3.3 w=1.08 l=0.18
X61 SUNSAR_CAPT8B_CV_0.XF11.XA3.Y SUNSAR_CAPT8B_CV_0.XF11.XA1.Y SUNSAR_CAPT8B_CV_0.XF11.XA3.MN0.D VGND sky130_fd_pr__nfet_01v8 ad=0.6156 pd=3.3 as=0.378 ps=1.78 w=1.08 l=0.18
X62 SUNSAR_CAPT8B_CV_0.XH13.XA3.MP0.D SUNSAR_SAR8B_CV_0.D<1> VPWR VPWR sky130_fd_pr__pfet_01v8 ad=0.378 pd=1.78 as=0.6156 ps=3.3 w=1.08 l=0.18
X63 SUNSAR_SAR8B_CV_0.XA0.XA10.Y SUNSAR_SAR8B_CV_0.XA0.XA10.A VGND VGND sky130_fd_pr__nfet_01v8 ad=0.6156 pd=3.3 as=0.6156 ps=3.3 w=1.08 l=0.18
X64 SUNSAR_SAR8B_CV_0.XA2.XA8.A SUNSAR_SAR8B_CV_0.XA2.ENO VGND VGND sky130_fd_pr__nfet_01v8 ad=0.6156 pd=3.3 as=0.6156 ps=3.3 w=1.08 l=0.18
R7 SUNSAR_SAR8B_CV_0.XDAC1.XC0.XRES4.B SUNSAR_SAR8B_CV_0.XDAC1.CP<9> sky130_fd_pr__res_generic_l1 w=0.34 l=0.34
X65 SUNSAR_SAR8B_CV_0.XB2.XA2.MN0.G SUNSAR_SAR8B_CV_0.XB2.XA2.MN0.G VPWR VPWR sky130_fd_pr__pfet_01v8 ad=0.6156 pd=3.3 as=0.6156 ps=3.3 w=1.08 l=0.18
X66 SUNSAR_CAPT8B_CV_0.XD09.XA1.Y SUNSAR_SAR8B_CV_0.DONE VGND VGND sky130_fd_pr__nfet_01v8 ad=0.6156 pd=3.3 as=0.6156 ps=3.3 w=1.08 l=0.18
X67 SUNSAR_SAR8B_CV_0.XA1.XA1.XA4.MN0.D SUNSAR_SAR8B_CV_0.XA0.CMP_OP VGND VGND sky130_fd_pr__nfet_01v8 ad=0.378 pd=1.78 as=0.6156 ps=3.3 w=1.08 l=0.18
X68 SUNSAR_SAR8B_CV_0.XA1.XA1.XA4.MP0.D SUNSAR_SAR8B_CV_0.EN VPWR VPWR sky130_fd_pr__pfet_01v8 ad=0.378 pd=1.78 as=0.6156 ps=3.3 w=1.08 l=0.18
X69 SUNSAR_SAR8B_CV_0.XA4.XA1.XA2.Y SUNSAR_SAR8B_CV_0.XA4.ENO VPWR VPWR sky130_fd_pr__pfet_01v8 ad=0.6156 pd=3.3 as=0.6156 ps=3.3 w=1.08 l=0.18
X70 SUNSAR_SAR8B_CV_0.XA6.XA10.Y SUNSAR_SAR8B_CV_0.XA6.XA10.A VPWR VPWR sky130_fd_pr__pfet_01v8 ad=0.6156 pd=3.3 as=0.6156 ps=3.3 w=1.08 l=0.18
X71 SUNSAR_SAR8B_CV_0.XA5.XA1.XA4.MN1.D SUNSAR_SAR8B_CV_0.XA5.XA1.XA2.Y SUNSAR_SAR8B_CV_0.XA5.XA1.XA4.MN0.D VGND sky130_fd_pr__nfet_01v8 ad=0.378 pd=1.78 as=0.378 ps=1.78 w=1.08 l=0.18
X72 SUNSAR_CAPT8B_CV_0.XB07.QN SUNSAR_CAPT8B_CV_0.XB07.XA2.Y SUNSAR_CAPT8B_CV_0.XB07.XA7.MP0.D VPWR sky130_fd_pr__pfet_01v8 ad=0.6156 pd=3.3 as=0.378 ps=1.78 w=1.08 l=0.18
X73 SUNSAR_CAPT8B_CV_0.XE10.XA6.MN0.D SUNSAR_CAPT8B_CV_0.XE10.XA4.A VGND VGND sky130_fd_pr__nfet_01v8 ad=0.378 pd=1.78 as=0.6156 ps=3.3 w=1.08 l=0.18
X74 SUNSAR_SAR8B_CV_0.XA0.XA6.MN1.S SUNSAR_SAR8B_CV_0.CK_SAMPLE VGND VGND sky130_fd_pr__nfet_01v8 ad=0.378 pd=1.78 as=0.6156 ps=3.3 w=1.08 l=0.18
X75 VGND SUNSAR_SAR8B_CV_0.XA2.XA1.CHL_OP SUNSAR_SAR8B_CV_0.XDAC1.CP<4> VGND sky130_fd_pr__nfet_01v8 ad=0.6156 pd=3.3 as=0.378 ps=1.78 w=1.08 l=0.18
X76 ua[1] SUNSAR_SAR8B_CV_0.XB1.M3.G SUNSAR_SAR8B_CV_0.SARP VGND sky130_fd_pr__nfet_01v8 ad=0.6156 pd=3.3 as=0.6156 ps=3.3 w=1.08 l=0.18
X77 SUNSAR_SAR8B_CV_0.XA5.XA1.XA4.MP1.D SUNSAR_SAR8B_CV_0.EN SUNSAR_SAR8B_CV_0.XA5.XA1.XA4.MP0.D VPWR sky130_fd_pr__pfet_01v8 ad=0.378 pd=1.78 as=0.378 ps=1.78 w=1.08 l=0.18
X78 SUNSAR_CAPT8B_CV_0.XE10.XA6.MP0.D SUNSAR_CAPT8B_CV_0.XE10.XA4.A VPWR VPWR sky130_fd_pr__pfet_01v8 ad=0.378 pd=1.78 as=0.6156 ps=3.3 w=1.08 l=0.18
X79 SUNSAR_SAR8B_CV_0.XB1.TIE_L SUNSAR_SAR8B_CV_0.XB2.XA2.MN0.G VGND VGND sky130_fd_pr__nfet_01v8 ad=0.6156 pd=3.3 as=0.6156 ps=3.3 w=1.08 l=0.18
X80 SUNSAR_CAPT8B_CV_0.XF11.XA7.MN0.D uo_out[3] VGND VGND sky130_fd_pr__nfet_01v8 ad=0.378 pd=1.78 as=0.6156 ps=3.3 w=1.08 l=0.18
X81 SUNSAR_SAR8B_CV_0.XA6.XA6.MP1.S SUNSAR_SAR8B_CV_0.XDAC2.CP<0> SUNSAR_SAR8B_CV_0.XA6.XA6.Y VPWR sky130_fd_pr__pfet_01v8 ad=0.378 pd=1.78 as=0.6156 ps=3.3 w=1.08 l=0.18
X82 SUNSAR_CAPT8B_CV_0.XD09.XA4.A SUNSAR_CAPT8B_CV_0.XD09.XA3.Y VGND VGND sky130_fd_pr__nfet_01v8 ad=0.6156 pd=3.3 as=0.6156 ps=3.3 w=1.08 l=0.18
X83 SUNSAR_CAPT8B_CV_0.XB07.XA2.Y SUNSAR_CAPT8B_CV_0.XB07.XA1.Y VGND VGND sky130_fd_pr__nfet_01v8 ad=0.6156 pd=3.3 as=0.6156 ps=3.3 w=1.08 l=0.18
X84 SUNSAR_CAPT8B_CV_0.XE10.XA1.Y SUNSAR_SAR8B_CV_0.DONE VGND VGND sky130_fd_pr__nfet_01v8 ad=0.6156 pd=3.3 as=0.6156 ps=3.3 w=1.08 l=0.18
X85 SUNSAR_SAR8B_CV_0.XA3.XA8.A SUNSAR_SAR8B_CV_0.XA3.ENO VGND VGND sky130_fd_pr__nfet_01v8 ad=0.6156 pd=3.3 as=0.6156 ps=3.3 w=1.08 l=0.18
X86 SUNSAR_CAPT8B_CV_0.XE10.XA1.Y SUNSAR_SAR8B_CV_0.DONE VPWR VPWR sky130_fd_pr__pfet_01v8 ad=0.6156 pd=3.3 as=0.6156 ps=3.3 w=1.08 l=0.18
X87 VPWR SUNSAR_SAR8B_CV_0.XB1.M3.G SUNSAR_SAR8B_CV_0.XB1.XA4.GNG VPWR sky130_fd_pr__pfet_01v8 ad=0.6156 pd=3.3 as=0.378 ps=1.78 w=1.08 l=0.18
X88 SUNSAR_SAR8B_CV_0.XA2.XA1.XA5.MP0.D SUNSAR_SAR8B_CV_0.EN VPWR VPWR sky130_fd_pr__pfet_01v8 ad=0.378 pd=1.78 as=0.6156 ps=3.3 w=1.08 l=0.18
X89 SUNSAR_SAR8B_CV_0.XA0.XA1.XA5.MN1.D SUNSAR_SAR8B_CV_0.XA0.XA1.XA2.Y SUNSAR_SAR8B_CV_0.XA0.XA1.XA5.MN0.D VGND sky130_fd_pr__nfet_01v8 ad=0.378 pd=1.78 as=0.378 ps=1.78 w=1.08 l=0.18
X90 SUNSAR_CAPT8B_CV_0.XH13.XA6.MN0.D SUNSAR_CAPT8B_CV_0.XH13.XA4.A VGND VGND sky130_fd_pr__nfet_01v8 ad=0.378 pd=1.78 as=0.6156 ps=3.3 w=1.08 l=0.18
X91 SUNSAR_CAPT8B_CV_0.XH13.XA2.Y SUNSAR_CAPT8B_CV_0.XH13.XA1.Y VPWR VPWR sky130_fd_pr__pfet_01v8 ad=0.6156 pd=3.3 as=0.6156 ps=3.3 w=1.08 l=0.18
X92 VGND VGND VGND VGND sky130_fd_pr__nfet_01v8 ad=0.6156 pd=3.3 as=0 ps=0 w=1.08 l=0.18
X93 VGND VGND VGND VGND sky130_fd_pr__nfet_01v8 ad=0.6156 pd=3.3 as=0 ps=0 w=1.08 l=0.18
X94 VGND SUNSAR_SAR8B_CV_0.XA3.XA1.CHL_OP SUNSAR_SAR8B_CV_0.XA3.CP0 VGND sky130_fd_pr__nfet_01v8 ad=0.6156 pd=3.3 as=0.378 ps=1.78 w=1.08 l=0.18
X95 VPWR VPWR VPWR VPWR sky130_fd_pr__pfet_01v8 ad=0.6156 pd=3.3 as=0 ps=0 w=1.08 l=0.18
X96 ua[1] SUNSAR_SAR8B_CV_0.XB1.TIE_L SUNSAR_SAR8B_CV_0.SARN VGND sky130_fd_pr__nfet_01v8 ad=0.6156 pd=3.3 as=0.6156 ps=3.3 w=1.08 l=0.18
X97 SUNSAR_SAR8B_CV_0.XA20.XA1.MN0.D SUNSAR_SAR8B_CV_0.SARP SUNSAR_SAR8B_CV_0.XA20.XA1.MN0.D VGND sky130_fd_pr__nfet_01v8 ad=0.378 pd=1.78 as=0 ps=0 w=1.08 l=0.18
X98 VPWR SUNSAR_SAR8B_CV_0.XA4.XA1.XA1.MP0.S SUNSAR_SAR8B_CV_0.XA4.XA1.XA1.MP3.S VPWR sky130_fd_pr__pfet_01v8 ad=0.6156 pd=3.3 as=0.6156 ps=3.3 w=1.08 l=0.18
R8 uio_out[3] TIE_L1 sky130_fd_pr__res_generic_m4 w=0.3 l=0.3
X99 SUNSAR_SAR8B_CV_0.XA6.XA1.XA5.MP1.D SUNSAR_SAR8B_CV_0.EN SUNSAR_SAR8B_CV_0.XA6.XA1.XA5.MP0.D VPWR sky130_fd_pr__pfet_01v8 ad=0.378 pd=1.78 as=0.378 ps=1.78 w=1.08 l=0.18
X100 SUNSAR_SAR8B_CV_0.XA2.XA1.XA1.MP1.D SUNSAR_SAR8B_CV_0.XA0.CMP_ON SUNSAR_SAR8B_CV_0.XA2.ENO VPWR sky130_fd_pr__pfet_01v8 ad=0.6156 pd=3.3 as=0.6156 ps=3.3 w=1.08 l=0.18
X101 SUNSAR_CAPT8B_CV_0.XE10.XA4.A SUNSAR_CAPT8B_CV_0.XE10.XA3.Y VGND VGND sky130_fd_pr__nfet_01v8 ad=0.6156 pd=3.3 as=0.6156 ps=3.3 w=1.08 l=0.18
X102 SUNSAR_CAPT8B_CV_0.XH13.XA1.Y SUNSAR_SAR8B_CV_0.DONE VGND VGND sky130_fd_pr__nfet_01v8 ad=0.6156 pd=3.3 as=0.6156 ps=3.3 w=1.08 l=0.18
X103 SUNSAR_SAR8B_CV_0.XA2.DONE SUNSAR_SAR8B_CV_0.XA2.XA8.A VGND VGND sky130_fd_pr__nfet_01v8 ad=0.6156 pd=3.3 as=0.6156 ps=3.3 w=1.08 l=0.18
X104 SUNSAR_CAPT8B_CV_0.XE10.XA4.A SUNSAR_CAPT8B_CV_0.XE10.XA3.Y VPWR VPWR sky130_fd_pr__pfet_01v8 ad=0.6156 pd=3.3 as=0.6156 ps=3.3 w=1.08 l=0.18
X105 SUNSAR_SAR8B_CV_0.XDAC1.CP<6> SUNSAR_SAR8B_CV_0.XA1.XA1.CHL_OP VGND VGND sky130_fd_pr__nfet_01v8 ad=0.378 pd=1.78 as=0.378 ps=1.78 w=1.08 l=0.18
X106 uo_out[0] SUNSAR_CAPT8B_CV_0.XI14.QN VGND VGND sky130_fd_pr__nfet_01v8 ad=0.6156 pd=3.3 as=0.6156 ps=3.3 w=1.08 l=0.18
X107 SUNSAR_SAR8B_CV_0.XDAC1.CP<6> SUNSAR_SAR8B_CV_0.XA1.XA1.CHL_OP VPWR VPWR sky130_fd_pr__pfet_01v8 ad=0.378 pd=1.78 as=0.378 ps=1.78 w=1.08 l=0.18
R9 SUNSAR_SAR8B_CV_0.XDAC1.X16ab.XRES1A.B SUNSAR_SAR8B_CV_0.D<5> sky130_fd_pr__res_generic_l1 w=0.34 l=0.34
X108 VGND VGND VGND VGND sky130_fd_pr__nfet_01v8 ad=0.6156 pd=3.3 as=0 ps=0 w=1.08 l=0.18
X109 VGND VGND VGND VGND sky130_fd_pr__nfet_01v8 ad=0.6156 pd=3.3 as=0 ps=0 w=1.08 l=0.18
X110 VGND VGND VGND VGND sky130_fd_pr__nfet_01v8 ad=0.6156 pd=3.3 as=0 ps=0 w=1.08 l=0.18
X111 SUNSAR_SAR8B_CV_0.XA1.XA11.Y SUNSAR_SAR8B_CV_0.XA1.XA10.Y VGND VGND sky130_fd_pr__nfet_01v8 ad=0.378 pd=1.78 as=0.6156 ps=3.3 w=1.08 l=0.18
X112 SUNSAR_SAR8B_CV_0.XDAC2.CP<4> SUNSAR_SAR8B_CV_0.XDAC1.CP<4> VGND VGND sky130_fd_pr__nfet_01v8 ad=0.378 pd=1.78 as=0.6156 ps=3.3 w=1.08 l=0.18
X113 VPWR SUNSAR_SAR8B_CV_0.XA20.XA2.CO SUNSAR_SAR8B_CV_0.XA0.CMP_ON VPWR sky130_fd_pr__pfet_01v8 ad=0.6156 pd=3.3 as=0.378 ps=1.78 w=1.08 l=0.18
X114 VPWR VPWR VPWR VPWR sky130_fd_pr__pfet_01v8 ad=0.6156 pd=3.3 as=0 ps=0 w=1.08 l=0.18
X115 SUNSAR_SAR8B_CV_0.XA1.XA11.MP0.D SUNSAR_SAR8B_CV_0.XA1.XA10.Y VPWR VPWR sky130_fd_pr__pfet_01v8 ad=0.378 pd=1.78 as=0.6156 ps=3.3 w=1.08 l=0.18
X116 SUNSAR_CAPT8B_CV_0.XH13.XA4.A SUNSAR_CAPT8B_CV_0.XH13.XA3.Y VGND VGND sky130_fd_pr__nfet_01v8 ad=0.6156 pd=3.3 as=0.6156 ps=3.3 w=1.08 l=0.18
X117 VGND SUNSAR_SAR8B_CV_0.XA4.CEO SUNSAR_SAR8B_CV_0.XA5.XA11.Y VGND sky130_fd_pr__nfet_01v8 ad=0.6156 pd=3.3 as=0.378 ps=1.78 w=1.08 l=0.18
X118 SUNSAR_SAR8B_CV_0.XA3.DONE SUNSAR_SAR8B_CV_0.XA3.XA8.A VGND VGND sky130_fd_pr__nfet_01v8 ad=0.6156 pd=3.3 as=0.6156 ps=3.3 w=1.08 l=0.18
R10 m3_2358_3728# SUNSAR_SAR8B_CV_0.XB1.XA4.GNG sky130_fd_pr__res_generic_m3 w=0.4 l=0.36
X119 SUNSAR_SAR8B_CV_0.XA5.XA11.Y SUNSAR_SAR8B_CV_0.XA4.CEO SUNSAR_SAR8B_CV_0.XA5.XA11.MP0.D VPWR sky130_fd_pr__pfet_01v8 ad=0.6156 pd=3.3 as=0.378 ps=1.78 w=1.08 l=0.18
X120 SUNSAR_SAR8B_CV_0.XA1.XA6.MN3.S SUNSAR_SAR8B_CV_0.CK_SAMPLE VGND VGND sky130_fd_pr__nfet_01v8 ad=0.378 pd=1.78 as=0.378 ps=1.78 w=1.08 l=0.18
X121 VGND SUNSAR_SAR8B_CV_0.XA2.XA1.CHL_ON SUNSAR_SAR8B_CV_0.XDAC2.CP<5> VGND sky130_fd_pr__nfet_01v8 ad=0.6156 pd=3.3 as=0.378 ps=1.78 w=1.08 l=0.18
X122 SUNSAR_SAR8B_CV_0.XA1.XA6.MP3.S SUNSAR_SAR8B_CV_0.D<6> VPWR VPWR sky130_fd_pr__pfet_01v8 ad=0.378 pd=1.78 as=0.378 ps=1.78 w=1.08 l=0.18
X123 SUNSAR_SAR8B_CV_0.XDAC1.CP<9> SUNSAR_SAR8B_CV_0.D<7> VPWR VPWR sky130_fd_pr__pfet_01v8 ad=0.378 pd=1.78 as=0.378 ps=1.78 w=1.08 l=0.18
R11 SUNSAR_SAR8B_CV_0.XDAC2.CP<5> SUNSAR_SAR8B_CV_0.XDAC2.X16ab.XRES4.B sky130_fd_pr__res_generic_l1 w=0.34 l=0.34
X124 VGND VGND VGND VGND sky130_fd_pr__nfet_01v8 ad=0.6156 pd=3.3 as=0 ps=0 w=1.08 l=0.18
X125 SUNSAR_SAR8B_CV_0.XA5.XA6.Y SUNSAR_SAR8B_CV_0.CK_SAMPLE SUNSAR_SAR8B_CV_0.XA5.XA6.MN3.S VGND sky130_fd_pr__nfet_01v8 ad=0.6156 pd=3.3 as=0.378 ps=1.78 w=1.08 l=0.18
X126 SUNSAR_SAR8B_CV_0.XDAC2.CP<3> SUNSAR_SAR8B_CV_0.XA3.CP0 VGND VGND sky130_fd_pr__nfet_01v8 ad=0.378 pd=1.78 as=0.6156 ps=3.3 w=1.08 l=0.18
X127 SUNSAR_SAR8B_CV_0.XA5.XA6.Y SUNSAR_SAR8B_CV_0.D<2> SUNSAR_SAR8B_CV_0.XA5.XA6.MP3.S VPWR sky130_fd_pr__pfet_01v8 ad=0.6156 pd=3.3 as=0.378 ps=1.78 w=1.08 l=0.18
X128 SUNSAR_SAR8B_CV_0.XDAC1.CP<6> SUNSAR_SAR8B_CV_0.XA1.XA1.CHL_OP VGND VGND sky130_fd_pr__nfet_01v8 ad=0.378 pd=1.78 as=0.6156 ps=3.3 w=1.08 l=0.18
R12 SUNSAR_SAR8B_CV_0.XB1.XA3.B m3_9126_4848# sky130_fd_pr__res_generic_m3 w=0.4 l=0.36
X129 SUNSAR_SAR8B_CV_0.XDAC1.CP<6> SUNSAR_SAR8B_CV_0.XA1.XA1.CHL_OP VPWR VPWR sky130_fd_pr__pfet_01v8 ad=0.378 pd=1.78 as=0.6156 ps=3.3 w=1.08 l=0.18
X130 VPWR SUNSAR_SAR8B_CV_0.XA4.CN1 SUNSAR_SAR8B_CV_0.D<3> VPWR sky130_fd_pr__pfet_01v8 ad=0.6156 pd=3.3 as=0.378 ps=1.78 w=1.08 l=0.18
X131 VGND SUNSAR_SAR8B_CV_0.XA4.CN1 SUNSAR_SAR8B_CV_0.D<3> VGND sky130_fd_pr__nfet_01v8 ad=0.378 pd=1.78 as=0.378 ps=1.78 w=1.08 l=0.18
X132 SUNSAR_SAR8B_CV_0.XA0.XA10.A SUNSAR_SAR8B_CV_0.XA0.XA8.A VPWR VPWR sky130_fd_pr__pfet_01v8 ad=0.378 pd=1.78 as=0.6156 ps=3.3 w=1.08 l=0.18
X133 SUNSAR_SAR8B_CV_0.XA20.XA3.N2 SUNSAR_SAR8B_CV_0.SARN SUNSAR_SAR8B_CV_0.XA20.XA2.N1 VGND sky130_fd_pr__nfet_01v8 ad=0.378 pd=1.78 as=0.378 ps=1.78 w=1.08 l=0.18
X134 VGND VGND VGND VGND sky130_fd_pr__nfet_01v8 ad=0.6156 pd=3.3 as=0 ps=0 w=1.08 l=0.18
X135 SUNSAR_SAR8B_CV_0.XA2.XA1.XA1.MP3.S SUNSAR_SAR8B_CV_0.XA0.CMP_OP SUNSAR_SAR8B_CV_0.XA2.XA1.XA1.MP1.D VPWR sky130_fd_pr__pfet_01v8 ad=0.6156 pd=3.3 as=0.6156 ps=3.3 w=1.08 l=0.18
X136 VPWR SUNSAR_SAR8B_CV_0.XA20.XA2.CO SUNSAR_SAR8B_CV_0.XA0.CMP_ON VPWR sky130_fd_pr__pfet_01v8 ad=0.378 pd=1.78 as=0.378 ps=1.78 w=1.08 l=0.18
X137 VGND SUNSAR_SAR8B_CV_0.XA3.XA1.CHL_ON SUNSAR_SAR8B_CV_0.XA3.CN1 VGND sky130_fd_pr__nfet_01v8 ad=0.6156 pd=3.3 as=0.378 ps=1.78 w=1.08 l=0.18
X138 VPWR SUNSAR_SAR8B_CV_0.XA4.XA6.Y SUNSAR_SAR8B_CV_0.XA4.XA10.A VPWR sky130_fd_pr__pfet_01v8 ad=0.6156 pd=3.3 as=0.378 ps=1.78 w=1.08 l=0.18
X139 SUNSAR_SAR8B_CV_0.XA1.XA1.CHL_ON SUNSAR_SAR8B_CV_0.XA0.ENO SUNSAR_SAR8B_CV_0.XA1.XA1.XA5.MN1.D VGND sky130_fd_pr__nfet_01v8 ad=0.6156 pd=3.3 as=0.378 ps=1.78 w=1.08 l=0.18
X140 SUNSAR_SAR8B_CV_0.XDAC2.CP<8> SUNSAR_SAR8B_CV_0.XDAC1.CP<8> VPWR VPWR sky130_fd_pr__pfet_01v8 ad=0.378 pd=1.78 as=0.378 ps=1.78 w=1.08 l=0.18
X141 SUNSAR_SAR8B_CV_0.XA1.XA1.CHL_ON SUNSAR_SAR8B_CV_0.EN SUNSAR_SAR8B_CV_0.XA1.XA1.XA5.MP1.D VPWR sky130_fd_pr__pfet_01v8 ad=0.6156 pd=3.3 as=0.378 ps=1.78 w=1.08 l=0.18
X142 SUNSAR_CAPT8B_CV_0.XD09.QN SUNSAR_CAPT8B_CV_0.XD09.XA1.Y SUNSAR_CAPT8B_CV_0.XD09.XA6.MP0.D VPWR sky130_fd_pr__pfet_01v8 ad=0.6156 pd=3.3 as=0.378 ps=1.78 w=1.08 l=0.18
X143 VPWR SUNSAR_SAR8B_CV_0.XA4.CP0 SUNSAR_SAR8B_CV_0.XDAC2.CP<2> VPWR sky130_fd_pr__pfet_01v8 ad=0.6156 pd=3.3 as=0.378 ps=1.78 w=1.08 l=0.18
X144 SUNSAR_CAPT8B_CV_0.XI14.XA3.Y SUNSAR_CAPT8B_CV_0.XI14.XA2.Y SUNSAR_CAPT8B_CV_0.XI14.XA4.MN0.D VGND sky130_fd_pr__nfet_01v8 ad=0.6156 pd=3.3 as=0.378 ps=1.78 w=1.08 l=0.18
X145 SUNSAR_SAR8B_CV_0.XDAC1.CP<9> SUNSAR_SAR8B_CV_0.D<7> VPWR VPWR sky130_fd_pr__pfet_01v8 ad=0.378 pd=1.78 as=0.6156 ps=3.3 w=1.08 l=0.18
X146 VGND VGND VGND VGND sky130_fd_pr__nfet_01v8 ad=0.6156 pd=3.3 as=0 ps=0 w=1.08 l=0.18
X147 SUNSAR_SAR8B_CV_0.XA5.CEO SUNSAR_SAR8B_CV_0.XA5.XA11.Y VGND VGND sky130_fd_pr__nfet_01v8 ad=0.6156 pd=3.3 as=0.6156 ps=3.3 w=1.08 l=0.18
X148 VPWR SUNSAR_SAR8B_CV_0.XA3.XA1.CHL_ON SUNSAR_SAR8B_CV_0.XA3.CN1 VPWR sky130_fd_pr__pfet_01v8 ad=0.378 pd=1.78 as=0.378 ps=1.78 w=1.08 l=0.18
X149 SUNSAR_SAR8B_CV_0.XA5.CEO SUNSAR_SAR8B_CV_0.XA5.XA11.Y VPWR VPWR sky130_fd_pr__pfet_01v8 ad=0.6156 pd=3.3 as=0.6156 ps=3.3 w=1.08 l=0.18
X150 SUNSAR_SAR8B_CV_0.XA20.XA1.CKN SUNSAR_SAR8B_CV_0.XA20.XA10.B SUNSAR_SAR8B_CV_0.XA20.XA10.MN0.D VGND sky130_fd_pr__nfet_01v8 ad=0.6156 pd=3.3 as=0.378 ps=1.78 w=1.08 l=0.18
X151 SUNSAR_SAR8B_CV_0.XDAC2.CP<5> SUNSAR_SAR8B_CV_0.XA2.XA1.CHL_ON VPWR VPWR sky130_fd_pr__pfet_01v8 ad=0.378 pd=1.78 as=0.378 ps=1.78 w=1.08 l=0.18
X152 SUNSAR_SAR8B_CV_0.XA2.XA1.CHL_OP SUNSAR_SAR8B_CV_0.XA1.ENO SUNSAR_SAR8B_CV_0.XA2.XA1.XA4.MN1.D VGND sky130_fd_pr__nfet_01v8 ad=0.6156 pd=3.3 as=0.378 ps=1.78 w=1.08 l=0.18
X153 SUNSAR_CAPT8B_CV_0.XF11.XA3.MP0.D SUNSAR_SAR8B_CV_0.D<3> VPWR VPWR sky130_fd_pr__pfet_01v8 ad=0.378 pd=1.78 as=0.6156 ps=3.3 w=1.08 l=0.18
X154 SUNSAR_SAR8B_CV_0.XA0.XA8.A SUNSAR_SAR8B_CV_0.XA0.ENO VGND VGND sky130_fd_pr__nfet_01v8 ad=0.6156 pd=3.3 as=0.6156 ps=3.3 w=1.08 l=0.18
X155 VGND SUNSAR_SAR8B_CV_0.XA6.XA1.CHL_ON SUNSAR_SAR8B_CV_0.XA6.CN1 VGND sky130_fd_pr__nfet_01v8 ad=0.378 pd=1.78 as=0.378 ps=1.78 w=1.08 l=0.18
X156 SUNSAR_SAR8B_CV_0.XA2.XA1.XA1.MN1.D SUNSAR_SAR8B_CV_0.XA1.ENO SUNSAR_SAR8B_CV_0.XA2.XA1.XA1.MP0.S VGND sky130_fd_pr__nfet_01v8 ad=0.6156 pd=3.3 as=0.6156 ps=3.3 w=1.08 l=0.18
X157 SUNSAR_CAPT8B_CV_0.XG12.XA4.MN0.D SUNSAR_CAPT8B_CV_0.XG12.XA4.A VGND VGND sky130_fd_pr__nfet_01v8 ad=0.378 pd=1.78 as=0.6156 ps=3.3 w=1.08 l=0.18
R13 m3_18054_4848# SUNSAR_SAR8B_CV_0.XB2.XA3.B sky130_fd_pr__res_generic_m3 w=0.4 l=0.36
X158 SUNSAR_CAPT8B_CV_0.XG12.XA4.MP0.D SUNSAR_CAPT8B_CV_0.XG12.XA4.A VPWR VPWR sky130_fd_pr__pfet_01v8 ad=0.378 pd=1.78 as=0.6156 ps=3.3 w=1.08 l=0.18
X159 SUNSAR_SAR8B_CV_0.XA4.XA10.Y SUNSAR_SAR8B_CV_0.XA4.XA10.A VPWR VPWR sky130_fd_pr__pfet_01v8 ad=0.6156 pd=3.3 as=0.6156 ps=3.3 w=1.08 l=0.18
X160 SUNSAR_SAR8B_CV_0.XA6.XA8.A SUNSAR_SAR8B_CV_0.XA6.ENO VPWR VPWR sky130_fd_pr__pfet_01v8 ad=0.6156 pd=3.3 as=0.6156 ps=3.3 w=1.08 l=0.18
X161 VGND SUNSAR_SAR8B_CV_0.XA0.XA1.CHL_OP SUNSAR_SAR8B_CV_0.XDAC1.CP<8> VGND sky130_fd_pr__nfet_01v8 ad=0.6156 pd=3.3 as=0.378 ps=1.78 w=1.08 l=0.18
X162 SUNSAR_SAR8B_CV_0.XA3.XA1.XA4.MP1.D SUNSAR_SAR8B_CV_0.EN SUNSAR_SAR8B_CV_0.XA3.XA1.XA4.MP0.D VPWR sky130_fd_pr__pfet_01v8 ad=0.378 pd=1.78 as=0.378 ps=1.78 w=1.08 l=0.18
X163 SUNSAR_SAR8B_CV_0.XA3.XA1.CHL_OP SUNSAR_SAR8B_CV_0.XA2.ENO SUNSAR_SAR8B_CV_0.XA3.XA1.XA4.MN1.D VGND sky130_fd_pr__nfet_01v8 ad=0.6156 pd=3.3 as=0.378 ps=1.78 w=1.08 l=0.18
X164 SUNSAR_SAR8B_CV_0.XA0.CMP_ON SUNSAR_SAR8B_CV_0.XA20.XA2.CO VGND VGND sky130_fd_pr__nfet_01v8 ad=0.378 pd=1.78 as=0.6156 ps=3.3 w=1.08 l=0.18
X165 SUNSAR_SAR8B_CV_0.XA4.XA6.MP1.S SUNSAR_SAR8B_CV_0.XDAC2.CP<2> SUNSAR_SAR8B_CV_0.XA4.XA6.Y VPWR sky130_fd_pr__pfet_01v8 ad=0.378 pd=1.78 as=0.6156 ps=3.3 w=1.08 l=0.18
X166 VPWR SUNSAR_SAR8B_CV_0.XA6.XA1.CHL_OP SUNSAR_SAR8B_CV_0.XA6.CP0 VPWR sky130_fd_pr__pfet_01v8 ad=0.6156 pd=3.3 as=0.378 ps=1.78 w=1.08 l=0.18
R14 SUNSAR_SAR8B_CV_0.XDAC1.XC32a<0>.XRES4.B SUNSAR_SAR8B_CV_0.D<3> sky130_fd_pr__res_generic_l1 w=0.34 l=0.34
X167 SUNSAR_SAR8B_CV_0.XA5.XA1.XA2.Y SUNSAR_SAR8B_CV_0.XA5.ENO VGND VGND sky130_fd_pr__nfet_01v8 ad=0.6156 pd=3.3 as=0.6156 ps=3.3 w=1.08 l=0.18
X168 SUNSAR_SAR8B_CV_0.XA2.XA1.XA4.MN0.D SUNSAR_SAR8B_CV_0.XA0.CMP_OP VGND VGND sky130_fd_pr__nfet_01v8 ad=0.378 pd=1.78 as=0.6156 ps=3.3 w=1.08 l=0.18
X169 VPWR SUNSAR_SAR8B_CV_0.XDAC1.CP<4> SUNSAR_SAR8B_CV_0.XDAC2.CP<4> VPWR sky130_fd_pr__pfet_01v8 ad=0.378 pd=1.78 as=0.378 ps=1.78 w=1.08 l=0.18
X170 SUNSAR_SAR8B_CV_0.XDAC2.CP<5> SUNSAR_SAR8B_CV_0.XA2.XA1.CHL_ON VPWR VPWR sky130_fd_pr__pfet_01v8 ad=0.378 pd=1.78 as=0.6156 ps=3.3 w=1.08 l=0.18
X171 SUNSAR_SAR8B_CV_0.XA3.XA1.XA1.MN1.D SUNSAR_SAR8B_CV_0.XA2.ENO SUNSAR_SAR8B_CV_0.XA3.XA1.XA1.MP0.S VGND sky130_fd_pr__nfet_01v8 ad=0.6156 pd=3.3 as=0.6156 ps=3.3 w=1.08 l=0.18
X172 SUNSAR_SAR8B_CV_0.XA5.XA1.XA2.Y SUNSAR_SAR8B_CV_0.XA5.ENO VPWR VPWR sky130_fd_pr__pfet_01v8 ad=0.6156 pd=3.3 as=0.6156 ps=3.3 w=1.08 l=0.18
X173 VPWR VPWR VPWR VPWR sky130_fd_pr__pfet_01v8 ad=0.6156 pd=3.3 as=0 ps=0 w=1.08 l=0.18
X174 SUNSAR_CAPT8B_CV_0.XC08.QN SUNSAR_CAPT8B_CV_0.XC08.XA1.Y SUNSAR_CAPT8B_CV_0.XC08.XA7.MN0.D VGND sky130_fd_pr__nfet_01v8 ad=0.6156 pd=3.3 as=0.378 ps=1.78 w=1.08 l=0.18
X175 VGND SUNSAR_SAR8B_CV_0.XA7.XA1.CHL_OP SUNSAR_SAR8B_CV_0.XA7.CP0 VGND sky130_fd_pr__nfet_01v8 ad=0.378 pd=1.78 as=0.378 ps=1.78 w=1.08 l=0.18
R15 SUNSAR_SAR8B_CV_0.XDAC1.XC0.XRES2.B SUNSAR_SAR8B_CV_0.XDAC1.CP<9> sky130_fd_pr__res_generic_l1 w=0.34 l=0.34
X176 SUNSAR_SAR8B_CV_0.XA6.XA1.XA4.MN1.D SUNSAR_SAR8B_CV_0.XA6.XA1.XA2.Y SUNSAR_SAR8B_CV_0.XA6.XA1.XA4.MN0.D VGND sky130_fd_pr__nfet_01v8 ad=0.378 pd=1.78 as=0.378 ps=1.78 w=1.08 l=0.18
X177 SUNSAR_SAR8B_CV_0.XA0.XA1.XA5.MP0.D SUNSAR_SAR8B_CV_0.EN VPWR VPWR sky130_fd_pr__pfet_01v8 ad=0.378 pd=1.78 as=0.6156 ps=3.3 w=1.08 l=0.18
X178 SUNSAR_CAPT8B_CV_0.XC08.QN SUNSAR_CAPT8B_CV_0.XC08.XA2.Y SUNSAR_CAPT8B_CV_0.XC08.XA7.MP0.D VPWR sky130_fd_pr__pfet_01v8 ad=0.6156 pd=3.3 as=0.378 ps=1.78 w=1.08 l=0.18
X179 SUNSAR_CAPT8B_CV_0.XF11.XA6.MN0.D SUNSAR_CAPT8B_CV_0.XF11.XA4.A VGND VGND sky130_fd_pr__nfet_01v8 ad=0.378 pd=1.78 as=0.6156 ps=3.3 w=1.08 l=0.18
X180 SUNSAR_CAPT8B_CV_0.XF11.XA2.Y SUNSAR_CAPT8B_CV_0.XF11.XA1.Y VPWR VPWR sky130_fd_pr__pfet_01v8 ad=0.6156 pd=3.3 as=0.6156 ps=3.3 w=1.08 l=0.18
X181 VGND VGND VGND VGND sky130_fd_pr__nfet_01v8 ad=0.6156 pd=3.3 as=0 ps=0 w=1.08 l=0.18
X182 VPWR SUNSAR_SAR8B_CV_0.XA7.XA1.CHL_OP SUNSAR_SAR8B_CV_0.XA7.CP0 VPWR sky130_fd_pr__pfet_01v8 ad=0.378 pd=1.78 as=0.378 ps=1.78 w=1.08 l=0.18
X183 VGND VGND VGND VGND sky130_fd_pr__nfet_01v8 ad=0.6156 pd=3.3 as=0 ps=0 w=1.08 l=0.18
X184 ua[1] SUNSAR_SAR8B_CV_0.XB1.CKN SUNSAR_SAR8B_CV_0.XB1.XA3.B VPWR sky130_fd_pr__pfet_01v8 ad=0.6156 pd=3.3 as=0.378 ps=1.78 w=1.08 l=0.18
X185 SUNSAR_SAR8B_CV_0.XA4.XA1.XA5.MP1.D SUNSAR_SAR8B_CV_0.EN SUNSAR_SAR8B_CV_0.XA4.XA1.XA5.MP0.D VPWR sky130_fd_pr__pfet_01v8 ad=0.378 pd=1.78 as=0.378 ps=1.78 w=1.08 l=0.18