* NGSPICE file created from tt_um_TT06_SAR_wulffern.ext - technology: sky130A

.subckt SUNTR_PCHDL D G S B a_216_n18# a_216_334# VSUBS
X0 D G S B sky130_fd_pr__pfet_01v8 ad=0.6156 pd=3.3 as=0.6156 ps=3.3 w=1.08 l=0.18
C0 B G 0.33939f
C1 a_216_n18# B 0.330729f
C2 a_216_334# B 0.331144f
C3 B VSUBS 2.80592f
.ends

.subckt SUNTR_NCHDL D G S B a_324_n18# a_324_334#
X0 D G S B sky130_fd_pr__nfet_01v8 ad=0.6156 pd=3.3 as=0.6156 ps=3.3 w=1.08 l=0.18
C0 G B 0.411913f
C1 a_324_n18# B 0.422415f
C2 a_324_334# B 0.422f
.ends

.subckt SUNTR_BFX1_CV Y AVDD AVSS MP1/B MN1/a_324_334# A MP1/a_216_334# VSUBS
XMP0 AVDD A MP1/G MP1/B MP0/a_216_n18# MP1/a_216_n18# VSUBS SUNTR_PCHDL
XMP1 Y MP1/G AVDD MP1/B MP1/a_216_n18# MP1/a_216_334# VSUBS SUNTR_PCHDL
XMN0 AVSS A MP1/G VSUBS MN0/a_324_n18# MN1/a_324_n18# SUNTR_NCHDL
XMN1 Y MP1/G AVSS VSUBS MN1/a_324_n18# MN1/a_324_334# SUNTR_NCHDL
C0 MP1/B MP1/a_216_n18# -0.310513f
C1 AVSS AVDD 0.10499f
C2 MP1/G AVSS 0.120067f
C3 A MP1/G 0.156853f
C4 MP1/B AVDD 0.181063f
C5 MP1/B MP1/G 0.178777f
C6 MP1/B A 0.109691f
C7 AVDD VSUBS 0.276075f
C8 AVSS VSUBS 0.45436f
C9 Y VSUBS 0.218882f
C10 MN1/a_324_n18# VSUBS 0.351938f
C11 MN1/a_324_334# VSUBS 0.422f
C12 MP1/G VSUBS 0.969276f
C13 A VSUBS 0.55997f
C14 MN0/a_324_n18# VSUBS 0.422415f
C15 MP1/B VSUBS 4.386796f
.ends

.subckt SUNTR_TIEH_CV Y AVDD AVSS MP0/B MP0/G MP0/a_216_334# MP0/a_216_n18# MN0/a_324_n18#
+ VSUBS MN0/a_324_334#
XMP0 Y MP0/G AVDD MP0/B MP0/a_216_n18# MP0/a_216_334# VSUBS SUNTR_PCHDL
XMN0 MP0/G MP0/G AVSS VSUBS MN0/a_324_n18# MN0/a_324_334# SUNTR_NCHDL
C0 MP0/B MP0/G 0.112479f
C1 MP0/B AVDD 0.112171f
C2 AVDD VSUBS 0.260853f
C3 AVSS VSUBS 0.382267f
C4 MP0/G VSUBS 0.78444f
C5 MN0/a_324_n18# VSUBS 0.422415f
C6 MN0/a_324_334# VSUBS 0.422f
C7 MP0/B VSUBS 2.80738f
.ends

.subckt SUNTR_TAPCELLB_CV AVDD MN1/a_324_n18# MP1/a_216_n18# AVSS
XMP1 AVDD AVDD AVDD AVDD MP1/a_216_n18# MP1/a_216_334# AVSS SUNTR_PCHDL
XMN1 AVSS AVSS AVSS AVSS MN1/a_324_n18# MN1/a_324_334# SUNTR_NCHDL
C0 AVDD AVSS 0.107602f
C1 AVSS 0 1.064147f
C2 MN1/a_324_n18# 0 0.422415f
C3 MN1/a_324_334# 0 0.422f
C4 AVDD 0 3.146627f
.ends

.subckt tt_um_TT06_SAR_done DONE uio_out<0> uio_oe<0> VPWR VGND
Xx3 uio_out<0> VPWR VGND VPWR x4/MN0/a_324_n18# DONE x4/MP0/a_216_n18# VGND SUNTR_BFX1_CV
Xx4 uio_oe<0> VPWR VGND VPWR x4/MP0/G x5/MP1/a_216_n18# x4/MP0/a_216_n18# x4/MN0/a_324_n18#
+ VGND x5/MN1/a_324_n18# SUNTR_TIEH_CV
Xx5 VPWR x5/MN1/a_324_n18# x5/MP1/a_216_n18# VGND SUNTR_TAPCELLB_CV
C0 uio_oe<0> VPWR 0.524617f
C1 uio_out<0> VGND 0.294473f
C2 x4/MP0/G VGND 0.114893f
C3 VPWR x5/MP1/a_216_n18# -0.314359f
C4 x4/MP0/a_216_n18# VPWR -0.31151f
C5 VGND 0 0.898244f
C6 x5/MN1/a_324_334# 0 0.422f
C7 VPWR 0 7.717914f
C8 x4/MP0/G 0 0.782647f
C9 x5/MN1/a_324_n18# 0 0.360407f
C10 uio_oe<0> 0 0.133144f
C11 uio_out<0> 0 0.357519f
C12 x3/MN1/a_324_n18# 0 0.355196f
C13 x4/MN0/a_324_n18# 0 0.360407f
C14 x3/MP1/G 0 0.95314f
C15 DONE 0 0.720744f
C16 x3/MN0/a_324_n18# 0 0.422415f
.ends

.subckt sky130_fd_pr__cap_mim_m3_1_XS736D c1_n1946_n17480# m3_n1986_n17520# VSUBS
X0 c1_n1946_n17480# m3_n1986_n17520# sky130_fd_pr__cap_mim_m3_1 l=18 w=18
X1 c1_n1946_n17480# m3_n1986_n17520# sky130_fd_pr__cap_mim_m3_1 l=18 w=18
X2 c1_n1946_n17480# m3_n1986_n17520# sky130_fd_pr__cap_mim_m3_1 l=18 w=18
X3 c1_n1946_n17480# m3_n1986_n17520# sky130_fd_pr__cap_mim_m3_1 l=18 w=18
X4 c1_n1946_n17480# m3_n1986_n17520# sky130_fd_pr__cap_mim_m3_1 l=18 w=18
X5 c1_n1946_n17480# m3_n1986_n17520# sky130_fd_pr__cap_mim_m3_1 l=18 w=18
X6 c1_n1946_n17480# m3_n1986_n17520# sky130_fd_pr__cap_mim_m3_1 l=18 w=18
X7 c1_n1946_n17480# m3_n1986_n17520# sky130_fd_pr__cap_mim_m3_1 l=18 w=18
X8 c1_n1946_n17480# m3_n1986_n17520# sky130_fd_pr__cap_mim_m3_1 l=18 w=18
C0 m3_n1986_n17520# c1_n1946_n17480# 0.265161p
C1 c1_n1946_n17480# VSUBS 9.109429f
C2 m3_n1986_n17520# VSUBS 65.3375f
.ends

.subckt SUNSAR_RM1 A B VSUBS
R0 A B sky130_fd_pr__res_generic_l1 w=0.34 l=0.34
.ends

.subckt SUNSAR_CAP32C_CV C1B C2 C4 C16 CTOP AVSS C1A XRES1A/B C8 XRES1B/B VSUBS
XXRES16 C16 XRES16/B VSUBS SUNSAR_RM1
XXRES2 C2 XRES2/B VSUBS SUNSAR_RM1
XXRES1A C1A XRES1A/B VSUBS SUNSAR_RM1
XXRES4 C4 XRES4/B VSUBS SUNSAR_RM1
XXRES1B C1B XRES1B/B VSUBS SUNSAR_RM1
XXRES8 C8 XRES8/B VSUBS SUNSAR_RM1
C0 XRES1A/B XRES16/B 0.437694f
C1 XRES1A/B AVSS 3.7558f
C2 XRES1B/B CTOP 3.552515f
C3 XRES8/B XRES2/B 0.419738f
C4 XRES8/B XRES4/B 0.449585f
C5 XRES16/B XRES2/B 0.441867f
C6 AVSS XRES2/B 4.083764f
C7 AVSS XRES4/B 4.927044f
C8 XRES1A/B CTOP 3.552515f
C9 AVSS XRES8/B 6.54197f
C10 AVSS XRES16/B 9.801106f
C11 XRES1B/B XRES4/B 0.40569f
C12 XRES2/B CTOP 6.866754f
C13 XRES1B/B AVSS 3.75982f
C14 XRES4/B CTOP 13.651895f
C15 XRES8/B CTOP 27.161474f
C16 XRES16/B CTOP 54.216488f
C17 AVSS CTOP 9.918658f
C18 CTOP VSUBS 7.76011f
C19 XRES2/B VSUBS 3.1129f
C20 XRES4/B VSUBS 3.516117f
C21 XRES8/B VSUBS 3.933522f
C22 XRES16/B VSUBS 4.664508f
C23 AVSS VSUBS 15.179144f
C24 C8 VSUBS 0.101745f
C25 XRES1B/B VSUBS 2.892833f
C26 C1B VSUBS 0.116997f
C27 C4 VSUBS 0.101745f
C28 XRES1A/B VSUBS 1.735354f
C29 C1A VSUBS 0.116997f
C30 C2 VSUBS 0.101745f
C31 C16 VSUBS 0.101745f
.ends

.subckt SUNSAR_CDAC7_CV CP<9> CP<8> CP<7> CP<6> CP<5> CP<4> CP<3> CP<2> CP<1> CP<0>
+ CTOP AVSS VSUBS
XX16ab CP<5> CP<5> CP<5> CP<6> CTOP AVSS CP<5> X16ab/XRES1A/B CP<4> X16ab/XRES1B/B
+ VSUBS SUNSAR_CAP32C_CV
XXC0 CP<9> CP<9> CP<9> CP<9> CTOP AVSS CP<9> XC0/XRES1A/B CP<9> XC0/XRES1B/B VSUBS
+ SUNSAR_CAP32C_CV
XXC1 CP<8> CP<8> CP<8> CP<8> CTOP AVSS CP<8> XC1/XRES1A/B CP<8> XC1/XRES1B/B VSUBS
+ SUNSAR_CAP32C_CV
XXC32a<0> CP<0> CP<1> CP<2> CP<7> CTOP AVSS AVSS XC32a<0>/XRES1A/B CP<3> XC32a<0>/XRES1B/B
+ VSUBS SUNSAR_CAP32C_CV
C0 CP<1> CP<3> 0.220707f
C1 CP<9> CP<5> 0.103206f
C2 XC1/XRES1B/B XC32a<0>/XRES1A/B 0.635098f
C3 X16ab/XRES1B/B XC0/XRES1A/B 0.635098f
C4 AVSS CTOP -1.633715f
C5 CP<5> CP<0> 0.20259f
C6 CP<7> CP<8> 2.575701f
C7 CP<8> CTOP 0.122672f
C8 CP<5> CP<8> 0.359484f
C9 CP<2> CP<3> 2.212231f
C10 CP<0> CP<1> 1.909476f
C11 X16ab/XRES1A/B XC32a<0>/XRES1B/B 0.635098f
C12 CP<2> CP<1> 1.995553f
C13 CP<5> CP<4> 1.57931f
C14 CP<5> CP<7> 0.394951f
C15 CP<9> AVSS 0.343312f
C16 CP<4> CP<3> 1.263888f
C17 CP<3> CP<7> 0.178438f
C18 CP<6> CP<7> 1.652261f
C19 CP<5> CP<3> 0.229397f
C20 CP<9> CP<8> 0.889573f
C21 CP<6> CP<5> 2.020583f
C22 CP<2> CP<0> 0.24075f
C23 CP<1> CP<7> 0.188755f
C24 CP<8> AVSS 0.71211f
C25 XC32a<0>/XRES2/B VSUBS 3.1129f
C26 XC32a<0>/XRES4/B VSUBS 3.516117f
C27 XC32a<0>/XRES8/B VSUBS 3.933522f
C28 XC32a<0>/XRES16/B VSUBS 4.664508f
C29 CP<3> VSUBS 1.126461f
C30 XC32a<0>/XRES1B/B VSUBS 2.892833f
C31 CP<0> VSUBS 1.167979f
C32 CP<2> VSUBS 0.834649f
C33 XC32a<0>/XRES1A/B VSUBS 1.735354f
C34 CP<1> VSUBS 1.392542f
C35 CP<7> VSUBS 1.060384f
C36 CTOP VSUBS 20.24516f
C37 XC1/XRES2/B VSUBS 3.1129f
C38 XC1/XRES4/B VSUBS 3.516117f
C39 XC1/XRES8/B VSUBS 3.933522f
C40 XC1/XRES16/B VSUBS 4.664508f
C41 AVSS VSUBS 51.996902f
C42 XC1/XRES1B/B VSUBS 2.892833f
C43 XC1/XRES1A/B VSUBS 1.735354f
C44 CP<8> VSUBS 3.823549f
C45 XC0/XRES2/B VSUBS 3.1129f
C46 XC0/XRES4/B VSUBS 3.516117f
C47 XC0/XRES8/B VSUBS 3.933522f
C48 XC0/XRES16/B VSUBS 4.664508f
C49 XC0/XRES1B/B VSUBS 2.892833f
C50 XC0/XRES1A/B VSUBS 1.735354f
C51 CP<5> VSUBS 2.378288f
C52 X16ab/XRES2/B VSUBS 3.1129f
C53 X16ab/XRES4/B VSUBS 3.516117f
C54 X16ab/XRES8/B VSUBS 3.933522f
C55 X16ab/XRES16/B VSUBS 4.664508f
C56 CP<4> VSUBS 0.757332f
C57 X16ab/XRES1B/B VSUBS 2.892833f
C58 X16ab/XRES1A/B VSUBS 1.735354f
C59 CP<6> VSUBS 0.645761f
C60 CP<9> VSUBS 2.290488f
.ends

.subckt SUNSAR_PCHDL D G S B a_216_n18# a_216_334# VSUBS
X0 D G S B sky130_fd_pr__pfet_01v8 ad=0.6156 pd=3.3 as=0.6156 ps=3.3 w=1.08 l=0.18
C0 B G 0.341895f
C1 a_216_n18# B 0.330729f
C2 a_216_334# B 0.331144f
C3 B VSUBS 2.80584f
.ends

.subckt SUNSAR_NCHDL D G S B a_324_n18# a_324_334#
X0 D G S B sky130_fd_pr__nfet_01v8 ad=0.6156 pd=3.3 as=0.6156 ps=3.3 w=1.08 l=0.18
C0 G B 0.415197f
C1 a_324_n18# B 0.422415f
C2 a_324_334# B 0.422f
.ends

.subckt SUNSAR_NDX1_CV Y AVDD AVSS MN1/a_324_334# B A BULKP MP0/a_216_n18# MP1/a_216_334#
+ MN0/a_324_n18# VSUBS
XMP0 Y A AVDD BULKP MP0/a_216_n18# B VSUBS SUNSAR_PCHDL
XMP1 AVDD B Y BULKP A MP1/a_216_334# VSUBS SUNSAR_PCHDL
XMN0 MN1/S A AVSS VSUBS MN0/a_324_n18# B SUNSAR_NCHDL
XMN1 Y B MN1/S VSUBS A MN1/a_324_334# SUNSAR_NCHDL
C0 A BULKP -0.246413f
C1 BULKP AVDD 0.154562f
C2 BULKP B -0.247362f
C3 AVSS VSUBS 0.392705f
C4 MN1/a_324_334# VSUBS 0.422f
C5 AVDD VSUBS 0.326781f
C6 MN0/a_324_n18# VSUBS 0.422415f
C7 Y VSUBS 0.252959f
C8 B VSUBS 0.538314f
C9 BULKP VSUBS 3.595964f
C10 A VSUBS 0.539194f
.ends

.subckt SUNSAR_NRX1_CV AVDD AVSS MN1/a_324_334# B BULKP MP0/a_216_n18# Y MP1/a_216_334#
+ A MN0/a_324_n18# VSUBS
XMP0 MP1/S A AVDD BULKP MP0/a_216_n18# B VSUBS SUNSAR_PCHDL
XMP1 Y B MP1/S BULKP A MP1/a_216_334# VSUBS SUNSAR_PCHDL
XMN0 Y A AVSS VSUBS MN0/a_324_n18# B SUNSAR_NCHDL
XMN1 AVSS B Y VSUBS A MN1/a_324_334# SUNSAR_NCHDL
C0 A BULKP -0.246413f
C1 Y AVSS 0.112939f
C2 BULKP AVDD 0.122023f
C3 BULKP B -0.247362f
C4 AVSS VSUBS 0.506278f
C5 Y VSUBS 0.247181f
C6 MN1/a_324_334# VSUBS 0.422f
C7 MN0/a_324_n18# VSUBS 0.422415f
C8 AVDD VSUBS 0.25764f
C9 B VSUBS 0.538314f
C10 BULKP VSUBS 3.595964f
C11 A VSUBS 0.539194f
.ends

.subckt SUNSAR_IVX1_CV BULKP AVSS Y MP0/a_216_n18# MP0/a_216_334# AVDD A MN0/a_324_n18#
+ VSUBS MN0/a_324_334#
XMP0 Y A AVDD BULKP MP0/a_216_n18# MP0/a_216_334# VSUBS SUNSAR_PCHDL
XMN0 Y A AVSS VSUBS MN0/a_324_n18# MN0/a_324_334# SUNSAR_NCHDL
C0 BULKP A 0.109299f
C1 BULKP AVDD 0.103136f
C2 AVSS VSUBS 0.367376f
C3 A VSUBS 0.631634f
C4 Y VSUBS 0.268384f
C5 MN0/a_324_n18# VSUBS 0.422415f
C6 MN0/a_324_334# VSUBS 0.422f
C7 AVDD VSUBS 0.246592f
C8 BULKP VSUBS 2.80697f
.ends

.subckt SUNSAR_TAPCELLB_CV AVDD MN1/a_324_n18# MN1/a_324_334# MP1/a_216_334# MP1/a_216_n18#
+ AVSS
XMP1 AVDD AVDD AVDD AVDD MP1/a_216_n18# MP1/a_216_334# AVSS SUNSAR_PCHDL
XMN1 AVSS AVSS AVSS AVSS MN1/a_324_n18# MN1/a_324_334# SUNSAR_NCHDL
C0 AVDD AVSS 0.104949f
C1 AVSS 0 1.048908f
C2 MN1/a_324_n18# 0 0.422415f
C3 MN1/a_324_334# 0 0.422f
C4 AVDD 0 3.134387f
.ends

.subckt SUNSAR_SARKICKHX1_CV CI BULKP AVDD AVSS MP6_DMY/a_216_334# MN6/a_324_334#
+ CKN MP0/a_216_n18# CK MN0/a_324_n18# VSUBS
XMP1_DMY AVDD AVDD AVDD BULKP CKN AVDD VSUBS SUNSAR_PCHDL
XMP4_DMY AVDD AVDD AVDD BULKP AVDD AVDD VSUBS SUNSAR_PCHDL
XMP0 AVDD CKN MP0/S BULKP MP0/a_216_n18# AVDD VSUBS SUNSAR_PCHDL
XMN0 MP0/S CKN AVSS VSUBS MN0/a_324_n18# CI SUNSAR_NCHDL
XMN1 MP0/S CI MP0/S VSUBS CKN CI SUNSAR_NCHDL
XMN2 MP0/S CI MP0/S VSUBS CI CI SUNSAR_NCHDL
XMN3 MP0/S CI MP0/S VSUBS CI CI SUNSAR_NCHDL
XMN4 MP0/S CI MP0/S VSUBS CI CI SUNSAR_NCHDL
XMN6 AVDD CK MP0/S VSUBS CI MN6/a_324_334# SUNSAR_NCHDL
XMN5 MP0/S CI MP0/S VSUBS CI CK SUNSAR_NCHDL
XMP3_DMY AVDD AVDD AVDD BULKP AVDD AVDD VSUBS SUNSAR_PCHDL
XMP6_DMY AVDD AVDD AVDD BULKP AVDD MP6_DMY/a_216_334# VSUBS SUNSAR_PCHDL
XMP2_DMY AVDD AVDD AVDD BULKP AVDD AVDD VSUBS SUNSAR_PCHDL
XMP5_DMY AVDD AVDD AVDD BULKP AVDD AVDD VSUBS SUNSAR_PCHDL
C0 CKN BULKP -0.227092f
C1 BULKP AVDD -3.515122f
C2 MP0/S AVSS 0.208328f
C3 AVSS AVDD 0.180248f
C4 MP0/S AVDD 0.104608f
C5 MP0/S BULKP 0.11694f
C6 AVDD VSUBS 0.74157f
C7 BULKP VSUBS 7.544365f
C8 CK VSUBS 0.372036f
C9 MN6/a_324_334# VSUBS 0.422f
C10 CI VSUBS 1.791641f
C11 AVSS VSUBS 0.555322f
C12 MN0/a_324_n18# VSUBS 0.422415f
C13 MP0/S VSUBS 0.370985f
C14 CKN VSUBS 0.56349f
.ends

.subckt SUNSAR_SARCMPHX1_CV CI CK VMR N2 AVDD AVSS MP6/a_216_334# MN6/a_324_334# BULKP
+ MP0/a_216_n18# CO MN0/a_324_n18# VSUBS N1
XMP0 AVDD CK N1 BULKP MP0/a_216_n18# CK VSUBS SUNSAR_PCHDL
XMP1 N2 CK AVDD BULKP CK AVDD VSUBS SUNSAR_PCHDL
XMN0 N1 CK AVSS VSUBS MN0/a_324_n18# CI SUNSAR_NCHDL
XMP2 AVDD AVDD N2 BULKP CK CK VSUBS SUNSAR_PCHDL
XMN1 N2 CI N1 VSUBS CK CI SUNSAR_NCHDL
XMP3 CO CK AVDD BULKP AVDD VMR VSUBS SUNSAR_PCHDL
XMP4 AVDD VMR CO BULKP CK VMR VSUBS SUNSAR_PCHDL
XMN2 N1 CI N2 VSUBS CI CI SUNSAR_NCHDL
XMP5 CO VMR AVDD BULKP VMR VMR VSUBS SUNSAR_PCHDL
XMN3 N2 CI N1 VSUBS CI CI SUNSAR_NCHDL
XMN4 N1 CI N2 VSUBS CI CI SUNSAR_NCHDL
XMP6 AVDD VMR CO BULKP VMR MP6/a_216_334# VSUBS SUNSAR_PCHDL
XMN5 N2 CI N1 VSUBS CI VMR SUNSAR_NCHDL
XMN6 CO VMR N2 VSUBS CI MN6/a_324_334# SUNSAR_NCHDL
C0 BULKP CK -1.349649f
C1 N1 CI 0.175052f
C2 BULKP VMR -1.552184f
C3 AVDD CO 0.222193f
C4 AVDD BULKP -0.442314f
C5 AVDD AVSS 0.157463f
C6 N1 AVSS 0.158948f
C7 N1 N2 0.189549f
C8 AVSS VSUBS 0.533831f
C9 MN6/a_324_334# VSUBS 0.422f
C10 VMR VSUBS 0.606867f
C11 CI VSUBS 1.771056f
C12 CK VSUBS 0.626869f
C13 CO VSUBS 0.213838f
C14 BULKP VSUBS 7.544966f
C15 N2 VSUBS 0.221339f
C16 MN0/a_324_n18# VSUBS 0.422415f
C17 AVDD VSUBS 0.609607f
C18 N1 VSUBS 0.369132f
.ends

.subckt SUNSAR_IVX4_CV AVDD AVSS MP3/a_216_334# MN3/a_324_334# BULKP MP0/a_216_n18#
+ Y A MN0/a_324_n18# VSUBS
XMP0 Y A AVDD BULKP MP0/a_216_n18# A VSUBS SUNSAR_PCHDL
XMP1 AVDD A Y BULKP A A VSUBS SUNSAR_PCHDL
XMP2 Y A AVDD BULKP A A VSUBS SUNSAR_PCHDL
XMN0 Y A AVSS VSUBS MN0/a_324_n18# A SUNSAR_NCHDL
XMP3 AVDD A Y BULKP A MP3/a_216_334# VSUBS SUNSAR_PCHDL
XMN1 AVSS A Y VSUBS A A SUNSAR_NCHDL
XMN2 Y A AVSS VSUBS A A SUNSAR_NCHDL
XMN3 AVSS A Y VSUBS A MN3/a_324_334# SUNSAR_NCHDL
C0 BULKP AVDD 0.166303f
C1 Y AVSS 0.174863f
C2 BULKP A -1.606473f
C3 AVDD AVSS 0.131604f
C4 AVDD Y 0.146264f
C5 Y A 0.147008f
C6 A VSUBS 2.062361f
C7 AVSS VSUBS 0.622587f
C8 MN3/a_324_334# VSUBS 0.422f
C9 Y VSUBS 0.278637f
C10 MN0/a_324_n18# VSUBS 0.422415f
C11 AVDD VSUBS 0.372455f
C12 BULKP VSUBS 5.176431f
.ends

.subckt SUNSAR_SARCMPX1_CV CPI CNI CK_CMP CK_SAMPLE DONE XA9/A CPO AVDD CNO AVSS
XXA10 XA9/A AVDD AVSS XA11/MN0/a_324_n18# XA12/Y XA11/Y AVDD XA9/MP0/a_216_334# XA11/MP0/a_216_n18#
+ XA9/MN0/a_324_334# AVSS SUNSAR_NDX1_CV
XXA11 AVDD AVSS XA12/MN0/a_324_n18# DONE AVDD XA11/MP0/a_216_n18# XA11/Y XA12/MP0/a_216_n18#
+ CK_SAMPLE XA11/MN0/a_324_n18# AVSS SUNSAR_NRX1_CV
XXA12 AVDD AVSS XA12/Y XA12/MP0/a_216_n18# XA13/MP1/a_216_n18# AVDD CK_CMP XA12/MN0/a_324_n18#
+ AVSS XA13/MN1/a_324_n18# SUNSAR_IVX1_CV
XXA13 AVDD XA13/MN1/a_324_n18# XA13/MN1/a_324_334# XA13/MP1/a_216_334# XA13/MP1/a_216_n18#
+ AVSS SUNSAR_TAPCELLB_CV
XXA0 AVDD XA0/MN1/a_324_n18# XA1/MN0/a_324_n18# XA1/MP0/a_216_n18# XA0/MP1/a_216_n18#
+ AVSS SUNSAR_TAPCELLB_CV
XXA1 CPI AVDD AVDD AVSS XA2/MP0/a_216_n18# XA2/MN0/a_324_n18# XA9/A XA1/MP0/a_216_n18#
+ XA9/Y XA1/MN0/a_324_n18# AVSS SUNSAR_SARKICKHX1_CV
XXA2 CPI XA9/Y XA3/CO XA2/N2 AVDD AVSS XA2/MP6/a_216_334# XA2/MN6/a_324_334# AVDD
+ XA2/MP0/a_216_n18# XA3a/A XA2/MN0/a_324_n18# AVSS XA3/N1 SUNSAR_SARCMPHX1_CV
XXA3 CNI XA9/Y XA3a/A XA3/N2 AVDD AVSS XA4/MP0/a_216_n18# XA4/MN0/a_324_n18# AVDD
+ XA3/MP0/a_216_n18# XA3/CO XA3/MN0/a_324_n18# AVSS XA3/N1 SUNSAR_SARCMPHX1_CV
XXA4 CNI AVDD AVDD AVSS XA9/MP0/a_216_n18# XA9/MN0/a_324_n18# XA9/A XA4/MP0/a_216_n18#
+ XA9/Y XA4/MN0/a_324_n18# AVSS SUNSAR_SARKICKHX1_CV
XXA3a AVDD AVSS XA3/MP0/a_216_n18# XA3/MN0/a_324_n18# AVDD XA3a/MP0/a_216_n18# CNO
+ XA3a/A XA3a/MN0/a_324_n18# AVSS SUNSAR_IVX4_CV
XXA2a AVDD AVSS XA3a/MP0/a_216_n18# XA3a/MN0/a_324_n18# AVDD XA2/MP6/a_216_334# CPO
+ XA3/CO XA2/MN6/a_324_334# AVSS SUNSAR_IVX4_CV
XXA9 AVDD AVSS XA9/Y XA9/MP0/a_216_n18# XA9/MP0/a_216_334# AVDD XA9/A XA9/MN0/a_324_n18#
+ AVSS XA9/MN0/a_324_334# SUNSAR_IVX1_CV
C0 XA4/MP0/a_216_n18# AVDD -0.311987f
C1 XA9/Y XA3a/A 0.391167f
C2 XA3/MP0/a_216_n18# AVDD -0.313369f
C3 XA9/A AVDD 0.189383f
C4 XA3a/A CPO 0.108133f
C5 XA3/CO AVDD 1.166637f
C6 XA3/N1 AVDD 0.195531f
C7 XA2/MP6/a_216_334# AVDD -0.313518f
C8 XA12/Y CK_SAMPLE 0.106092f
C9 XA2/MP0/a_216_n18# AVDD -0.311986f
C10 XA3/CO XA9/A 0.141462f
C11 XA11/Y XA12/Y 0.130476f
C12 XA3a/MP0/a_216_n18# AVDD -0.312264f
C13 XA3/N1 CNO 0.113873f
C14 XA3/N1 XA3/CO 0.289212f
C15 CNI XA9/A 0.362147f
C16 XA12/MP0/a_216_n18# AVDD -0.312799f
C17 XA9/A CPI 0.297822f
C18 XA3a/A AVDD 0.912932f
C19 XA13/MP1/a_216_n18# AVDD -0.311986f
C20 XA3/N1 CPI 0.115376f
C21 XA3a/A XA9/A 0.136678f
C22 XA9/MP0/a_216_n18# AVDD -0.311986f
C23 XA3a/A XA3/CO 1.092423f
C24 XA12/Y AVDD 0.490048f
C25 XA9/Y AVDD 0.164728f
C26 XA3/N1 XA3a/A 0.309118f
C27 XA9/Y XA9/A 1.524979f
C28 XA9/Y XA3/CO 0.24121f
C29 XA9/MP0/a_216_334# AVDD -0.311309f
C30 XA11/Y XA9/A 0.268591f
C31 XA11/MP0/a_216_n18# AVDD -0.312939f
C32 XA3/N1 XA9/Y 0.106124f
C33 XA1/MP0/a_216_n18# AVDD -0.311986f
C34 XA9/Y CNI 0.382485f
C35 XA9/Y CPI 0.27081f
C36 XA9/MN0/a_324_n18# AVSS 0.355152f
C37 XA3/CO AVSS 2.700073f
C38 CPO AVSS 0.178234f
C39 XA2/MN6/a_324_334# AVSS 0.353692f
C40 XA3a/A AVSS 2.521704f
C41 XA3/MN0/a_324_n18# AVSS 0.353692f
C42 CNO AVSS 0.179699f
C43 XA3a/MN0/a_324_n18# AVSS 0.353692f
C44 XA4/MN0/a_324_n18# AVSS 0.3537f
C45 XA4/MP0/S AVSS 0.414246f
C46 CNI AVSS 3.621781f
C47 XA3/N2 AVSS 0.246915f
C48 XA9/Y AVSS 4.611301f
C49 XA2/N2 AVSS 0.246915f
C50 XA2/MN0/a_324_n18# AVSS 0.353761f
C51 XA3/N1 AVSS 1.207811f
C52 AVDD AVSS 46.225964f
C53 CPI AVSS 3.746344f
C54 XA1/MN0/a_324_n18# AVSS 0.356268f
C55 XA1/MP0/S AVSS 0.422681f
C56 XA9/A AVSS 4.708538f
C57 XA0/MN1/a_324_n18# AVSS 0.422415f
C58 XA13/MN1/a_324_n18# AVSS 0.356268f
C59 XA13/MN1/a_324_334# AVSS 0.422f
C60 CK_CMP AVSS 0.538462f
C61 XA12/MN0/a_324_n18# AVSS 0.356976f
C62 XA11/MN0/a_324_n18# AVSS 0.354241f
C63 DONE AVSS 0.474555f
C64 CK_SAMPLE AVSS 0.470196f
C65 XA9/MN0/a_324_334# AVSS 0.355744f
C66 XA12/Y AVSS 0.688417f
C67 XA11/Y AVSS 0.835238f
.ends

.subckt SUNSAR_NCHDLR D G S B a_324_n18# a_324_334#
X0 D G S B sky130_fd_pr__nfet_01v8 ad=0.6156 pd=3.3 as=0.6156 ps=3.3 w=1.08 l=0.18
C0 G B 0.415197f
C1 a_324_n18# B 0.422415f
C2 a_324_334# B 0.422f
.ends

.subckt SUNSAR_CAP_BSSW_CV A B VSUBS
R0 A m3_6948_120# sky130_fd_pr__res_generic_m3 w=0.4 l=0.36
R1 m3_252_280# B sky130_fd_pr__res_generic_m3 w=0.4 l=0.36
C0 A B 65.019196f
C1 m3_6948_120# B 0.172147f
C2 m3_252_280# A 0.105547f
C3 B VSUBS 13.2906f
C4 A VSUBS 13.2887f
.ends

.subckt SUNSAR_CAP_BSSW5_CV B A VSUBS
XXCAPB0 A B VSUBS SUNSAR_CAP_BSSW_CV
XXCAPB1 A B VSUBS SUNSAR_CAP_BSSW_CV
XXCAPB2 A B VSUBS SUNSAR_CAP_BSSW_CV
XXCAPB3 A B VSUBS SUNSAR_CAP_BSSW_CV
XXCAPB4 A B VSUBS SUNSAR_CAP_BSSW_CV
C0 A B 54.00426f
C1 B VSUBS 54.06679f
C2 A VSUBS 55.079098f
.ends

.subckt SUNSAR_TIEH_CV Y BULKP AVDD AVSS MP0/G MP0/a_216_n18# MP0/a_216_334# MN0/a_324_n18#
+ VSUBS MN0/a_324_334#
XMP0 Y MP0/G AVDD BULKP MP0/a_216_n18# MP0/a_216_334# VSUBS SUNSAR_PCHDL
XMN0 MP0/G MP0/G AVSS VSUBS MN0/a_324_n18# MN0/a_324_334# SUNSAR_NCHDL
C0 BULKP AVDD 0.106173f
C1 BULKP MP0/G 0.112786f
C2 AVDD VSUBS 0.24902f
C3 AVSS VSUBS 0.367715f
C4 MP0/G VSUBS 0.790179f
C5 MN0/a_324_n18# VSUBS 0.422415f
C6 MN0/a_324_334# VSUBS 0.422f
C7 BULKP VSUBS 2.806854f
.ends

.subckt SUNSAR_TIEL_CV BULKP AVDD AVSS MP0/G Y MP0/a_216_n18# MP0/a_216_334# MN0/a_324_n18#
+ VSUBS MN0/a_324_334#
XMP0 MP0/G MP0/G AVDD BULKP MP0/a_216_n18# MP0/a_216_334# VSUBS SUNSAR_PCHDL
XMN0 Y MP0/G AVSS VSUBS MN0/a_324_n18# MN0/a_324_334# SUNSAR_NCHDL
C0 BULKP AVDD 0.103703f
C1 BULKP MP0/G 0.161174f
C2 AVDD VSUBS 0.249049f
C3 AVSS VSUBS 0.370369f
C4 MP0/G VSUBS 0.708387f
C5 MN0/a_324_n18# VSUBS 0.422415f
C6 MN0/a_324_334# VSUBS 0.422f
C7 BULKP VSUBS 2.806659f
.ends

.subckt SUNSAR_TGPD_CV AVSS MP2/B MN2/a_324_334# MP0/S B MP0/a_216_n18# A C MP2/a_216_334#
+ MN0/a_324_n18# VSUBS AVDD
XMP1_DMY B AVDD AVDD MP2/B C C VSUBS SUNSAR_PCHDL
XMP0 AVDD C MP0/S MP2/B MP0/a_216_n18# AVDD VSUBS SUNSAR_PCHDL
XMN0 AVSS C MP0/S VSUBS MN0/a_324_n18# C SUNSAR_NCHDL
XMP2 A C B MP2/B AVDD MP2/a_216_334# VSUBS SUNSAR_PCHDL
XMN1 B C AVSS VSUBS C MP0/S SUNSAR_NCHDL
XMN2 A MP0/S B VSUBS C MN2/a_324_334# SUNSAR_NCHDL
C0 C MP2/B -0.388363f
C1 C MP0/S 0.148714f
C2 MP2/B AVDD -0.506518f
C3 B A 0.108f
C4 AVDD VSUBS 0.478784f
C5 AVSS VSUBS 0.352742f
C6 A VSUBS 0.204323f
C7 MN2/a_324_334# VSUBS 0.422f
C8 MP2/B VSUBS 4.387254f
C9 MP0/S VSUBS 0.747699f
C10 MN0/a_324_n18# VSUBS 0.422415f
C11 C VSUBS 0.995573f
.ends

.subckt SUNSAR_SARBSSWCTRL_CV GN GNG TIE_H BULKP AVDD AVSS MN1/a_324_334# C MP0/a_216_n18#
+ MP1/a_216_334# MN0/a_324_n18# VSUBS
XMP0 GNG C GN BULKP MP0/a_216_n18# GN VSUBS SUNSAR_PCHDL
XMP1 AVDD GN GNG BULKP C MP1/a_216_334# VSUBS SUNSAR_PCHDL
XMN0 MN1/S C AVSS VSUBS MN0/a_324_n18# TIE_H SUNSAR_NCHDL
XMN1 GN TIE_H MN1/S VSUBS C MN1/a_324_334# SUNSAR_NCHDL
C0 BULKP GN -0.16538f
C1 BULKP C -0.234337f
C2 C GN 0.105655f
C3 BULKP AVDD 0.119037f
C4 AVDD VSUBS 0.263047f
C5 AVSS VSUBS 0.384798f
C6 TIE_H VSUBS 0.37082f
C7 GN VSUBS 0.410388f
C8 MN1/a_324_334# VSUBS 0.422f
C9 C VSUBS 0.568156f
C10 MN0/a_324_n18# VSUBS 0.422415f
C11 BULKP VSUBS 3.595271f
.ends

.subckt SUNSAR_SARBSSW_CV VI CK CKN TIE_L VO1 M4/G VO2 XA3/B XA4/GNG AVDD AVSS
XM1 VI M4/G VO1 AVSS M1/a_324_n18# M2/a_324_n18# SUNSAR_NCHDLR
XM2 VI M4/G VO1 AVSS M2/a_324_n18# M3/a_324_n18# SUNSAR_NCHDLR
XM3 VI M4/G VO1 AVSS M3/a_324_n18# M4/a_324_n18# SUNSAR_NCHDLR
XM4 VI M4/G VO1 AVSS M4/a_324_n18# M5/a_324_n18# SUNSAR_NCHDLR
XM5 VI TIE_L VO2 AVSS M5/a_324_n18# M6/a_324_n18# SUNSAR_NCHDLR
XXCAPB1 XA3/B XA4/GNG AVSS SUNSAR_CAP_BSSW5_CV
XM6 VI TIE_L VO2 AVSS M6/a_324_n18# M7/a_324_n18# SUNSAR_NCHDLR
XM7 VI TIE_L VO2 AVSS M7/a_324_n18# M8/a_324_n18# SUNSAR_NCHDLR
XM8 VI TIE_L VO2 AVSS M8/a_324_n18# M8/a_324_334# SUNSAR_NCHDLR
XXA0 AVDD AVSS CKN XA0/MP0/a_216_n18# XA3/MP0/a_216_n18# AVDD CK XA0/MN0/a_324_n18#
+ AVSS XA3/MN0/a_324_n18# SUNSAR_IVX1_CV
XXA1 XA1/Y AVDD AVDD AVSS XA1/MP0/G XA4/MP1/a_216_334# XA7/MP1/a_216_n18# XA4/MN1/a_324_334#
+ AVSS XA7/MN1/a_324_n18# SUNSAR_TIEH_CV
XXA2 AVDD AVDD AVSS XA2/MP0/G TIE_L XA7/MP1/a_216_334# XA5/MP1/a_216_n18# XA7/MN1/a_324_334#
+ AVSS XA5/MN1/a_324_n18# SUNSAR_TIEL_CV
XXA3 AVSS AVDD XA4/MN0/a_324_n18# XA3/MP0/S XA3/B XA3/MP0/a_216_n18# VI CKN XA4/MP0/a_216_n18#
+ XA3/MN0/a_324_n18# AVSS AVDD SUNSAR_TGPD_CV
XXA5 AVDD XA5/MN1/a_324_n18# XA5/MN1/a_324_334# XA5/MP1/a_216_334# XA5/MP1/a_216_n18#
+ AVSS SUNSAR_TAPCELLB_CV
XXA4 M4/G XA4/GNG XA1/Y AVDD AVDD AVSS XA4/MN1/a_324_334# CKN XA4/MP0/a_216_n18# XA4/MP1/a_216_334#
+ XA4/MN0/a_324_n18# AVSS SUNSAR_SARBSSWCTRL_CV
XXA5b AVDD XA5b/MN1/a_324_n18# XA0/MN0/a_324_n18# XA0/MP0/a_216_n18# XA5b/MP1/a_216_n18#
+ AVSS SUNSAR_TAPCELLB_CV
XXA7 AVDD XA7/MN1/a_324_n18# XA7/MN1/a_324_334# XA7/MP1/a_216_334# XA7/MP1/a_216_n18#
+ AVSS SUNSAR_TAPCELLB_CV
C0 AVSS XA1/Y 0.269286f
C1 XA3/B AVDD 1.133969f
C2 XA5/MP1/a_216_n18# AVDD -0.311986f
C3 VO2 AVSS 0.115254f
C4 XA4/GNG AVDD 2.405915f
C5 TIE_L AVSS 0.570893f
C6 AVSS CKN 0.456081f
C7 M4/G VO1 0.121857f
C8 VI VO1 0.509495f
C9 VI M4/G 0.733023f
C10 AVDD XA1/Y 0.335195f
C11 AVDD XA7/MP1/a_216_n18# -0.314016f
C12 XA1/MP0/G XA1/Y 0.210055f
C13 AVDD CKN 0.381615f
C14 XA4/MP1/a_216_334# AVDD -0.310882f
C15 XA7/MP1/a_216_334# AVDD -0.311812f
C16 XA3/B CKN 0.220083f
C17 XA4/GNG CKN 0.13356f
C18 XA0/MP0/a_216_n18# AVDD -0.310529f
C19 VO1 AVSS 0.112136f
C20 M4/G AVSS 0.641192f
C21 VI AVSS 0.44414f
C22 AVDD XA4/MP0/a_216_n18# -0.315004f
C23 M4/G XA4/GNG 0.159364f
C24 M4/G XA1/Y 0.191529f
C25 VI VO2 0.402032f
C26 VI TIE_L 0.431895f
C27 M4/G CKN 0.164954f
C28 VI CKN 0.158203f
C29 AVDD AVSS 0.15268f
C30 AVDD XA3/MP0/a_216_n18# -0.315912f
C31 AVDD XA2/MP0/G 0.154505f
C32 XA3/MP0/S CKN 0.35416f
C33 XA7/MN1/a_324_n18# 0 0.359583f
C34 AVSS 0 2.93973f
C35 XA5b/MN1/a_324_n18# 0 0.422415f
C36 AVDD 0 16.012844f
C37 XA1/Y 0 0.690197f
C38 CKN 0 1.768971f
C39 XA4/MN0/a_324_n18# 0 0.359583f
C40 XA5/MN1/a_324_334# 0 0.422f
C41 XA3/MP0/S 0 0.743486f
C42 XA3/MN0/a_324_n18# 0 0.359583f
C43 XA2/MP0/G 0 0.708335f
C44 XA7/MN1/a_324_334# 0 0.359583f
C45 XA5/MN1/a_324_n18# 0 0.360407f
C46 XA1/MP0/G 0 0.788614f
C47 XA4/MN1/a_324_334# 0 0.359583f
C48 CK 0 0.513823f
C49 XA0/MN0/a_324_n18# 0 0.359583f
C50 M8/a_324_n18# 0 0.356977f
C51 M8/a_324_334# 0 0.422f
C52 M6/a_324_n18# 0 0.356977f
C53 M7/a_324_n18# 0 0.356977f
C54 XA3/B 0 54.41209f
C55 XA4/GNG 0 53.065117f
C56 VO2 0 0.317444f
C57 TIE_L 0 2.408263f
C58 M5/a_324_n18# 0 0.356977f
C59 M3/a_324_n18# 0 0.356977f
C60 M4/a_324_n18# 0 0.356977f
C61 VO1 0 0.370636f
C62 M4/G 0 2.475647f
C63 VI 0 1.254522f
C64 M1/a_324_n18# 0 0.422415f
C65 M2/a_324_n18# 0 0.356977f
.ends

.subckt SUNSAR_SAREMX1_CV B EN ENO AVDD MP3/a_216_334# MN3/a_324_334# A BULKP MP0/a_216_n18#
+ AVSS RST_N MN0/a_324_n18# VSUBS
XMP0 AVDD RST_N MP3/G BULKP MP0/a_216_n18# MP1/a_216_n18# VSUBS SUNSAR_PCHDL
XMP1 MP2/S B ENO BULKP MP1/a_216_n18# MP2/a_216_n18# VSUBS SUNSAR_PCHDL
XMP2 MP3/S A MP2/S BULKP MP2/a_216_n18# MP3/a_216_n18# VSUBS SUNSAR_PCHDL
XMN0 MN2/S EN MP3/G VSUBS MN0/a_324_n18# MN1/a_324_n18# SUNSAR_NCHDL
XMP3 AVDD MP3/G MP3/S BULKP MP3/a_216_n18# MP3/a_216_334# VSUBS SUNSAR_PCHDL
XMN1 MN2/S B AVSS VSUBS MN1/a_324_n18# MN2/a_324_n18# SUNSAR_NCHDL
XMN2 AVSS A MN2/S VSUBS MN2/a_324_n18# MN3/a_324_n18# SUNSAR_NCHDL
XMN3 ENO MP3/G AVSS VSUBS MN3/a_324_n18# MN3/a_324_334# SUNSAR_NCHDL
C0 BULKP A 0.108551f
C1 BULKP B 0.113772f
C2 ENO MP3/G 0.133485f
C3 MP3/G AVDD 0.124994f
C4 BULKP MP3/a_216_n18# -0.311038f
C5 MN2/S AVSS 0.206972f
C6 BULKP MP3/G 0.480172f
C7 BULKP MP2/a_216_n18# -0.311038f
C8 ENO AVDD 0.155663f
C9 BULKP ENO 0.182005f
C10 BULKP MP1/a_216_n18# -0.311038f
C11 AVSS AVDD 0.157524f
C12 MP3/G A 0.105132f
C13 BULKP AVDD 0.233317f
C14 AVDD VSUBS 0.390025f
C15 AVSS VSUBS 0.695296f
C16 MN3/a_324_n18# VSUBS 0.35253f
C17 MN3/a_324_334# VSUBS 0.422f
C18 A VSUBS 0.498033f
C19 MN2/a_324_n18# VSUBS 0.352522f
C20 B VSUBS 0.513991f
C21 MN1/a_324_n18# VSUBS 0.352522f
C22 MP3/G VSUBS 0.827536f
C23 EN VSUBS 0.386445f
C24 MN2/S VSUBS 0.207484f
C25 MN0/a_324_n18# VSUBS 0.422415f
C26 ENO VSUBS 0.246284f
C27 BULKP VSUBS 7.539519f
.ends

.subckt SUNSAR_SARLTX1_CV RST_N EN LCK_N AVDD AVSS MN2/a_324_334# A BULKP MP0/a_216_n18#
+ CHL MP2/a_216_334# MN0/a_324_n18# VSUBS
XMP0 MP1/S RST_N AVDD BULKP MP0/a_216_n18# RST_N VSUBS SUNSAR_PCHDL
XMP1 MP2/S RST_N MP1/S BULKP RST_N RST_N VSUBS SUNSAR_PCHDL
XMN0 MN1/S A AVSS VSUBS MN0/a_324_n18# LCK_N SUNSAR_NCHDL
XMP2 CHL RST_N MP2/S BULKP RST_N MP2/a_216_334# VSUBS SUNSAR_PCHDL
XMN1 MN2/S LCK_N MN1/S VSUBS A EN SUNSAR_NCHDL
XMN2 CHL EN MN2/S VSUBS LCK_N MN2/a_324_334# SUNSAR_NCHDL
C0 BULKP RST_N -1.319845f
C1 AVDD BULKP 0.143379f
C2 EN VSUBS 0.372036f
C3 MN2/a_324_334# VSUBS 0.422f
C4 LCK_N VSUBS 0.335836f
C5 AVSS VSUBS 0.428199f
C6 RST_N VSUBS 0.123012f
C7 CHL VSUBS 0.260933f
C8 BULKP VSUBS 4.387078f
C9 A VSUBS 0.372036f
C10 MN0/a_324_n18# VSUBS 0.422415f
C11 AVDD VSUBS 0.276832f
.ends

.subckt SUNSAR_SARMRYX1_CV CMP_OP CHL_OP CHL_ON RST_N XA5/MP2/a_216_334# ENO XA5/MN2/a_324_334#
+ CMP_ON AVDD AVSS XA2/Y EN
XXA0 AVDD XA0/MN1/a_324_n18# XA1/MN0/a_324_n18# XA1/MP0/a_216_n18# XA0/MP1/a_216_n18#
+ AVSS SUNSAR_TAPCELLB_CV
XXA1 CMP_ON EN ENO AVDD XA2/MP0/a_216_n18# XA2/MN0/a_324_n18# CMP_OP AVDD XA1/MP0/a_216_n18#
+ AVSS RST_N XA1/MN0/a_324_n18# AVSS SUNSAR_SAREMX1_CV
XXA2 AVDD AVSS XA2/Y XA2/MP0/a_216_n18# XA4/MP0/a_216_n18# AVDD ENO XA2/MN0/a_324_n18#
+ AVSS XA4/MN0/a_324_n18# SUNSAR_IVX1_CV
XXA4 RST_N EN XA2/Y AVDD AVSS XA5/MN0/a_324_n18# CMP_OP AVDD XA4/MP0/a_216_n18# CHL_OP
+ XA5/MP0/a_216_n18# XA4/MN0/a_324_n18# AVSS SUNSAR_SARLTX1_CV
XXA5 RST_N EN XA2/Y AVDD AVSS XA5/MN2/a_324_334# CMP_ON AVDD XA5/MP0/a_216_n18# CHL_ON
+ XA5/MP2/a_216_334# XA5/MN0/a_324_n18# AVSS SUNSAR_SARLTX1_CV
C0 AVDD XA4/MP0/a_216_n18# -0.31403f
C1 EN XA2/Y 0.114038f
C2 EN CMP_OP 0.196887f
C3 AVDD XA5/MP0/a_216_n18# -0.31403f
C4 ENO CMP_OP 0.15365f
C5 XA2/MP0/a_216_n18# AVDD -0.31403f
C6 XA1/MP0/a_216_n18# AVDD -0.311986f
C7 XA2/Y CMP_ON 0.130187f
C8 AVDD RST_N 1.195814f
C9 CMP_OP XA2/Y 0.183507f
C10 EN CMP_ON 0.54292f
C11 XA5/MN2/a_324_334# AVSS 0.422f
C12 CHL_ON AVSS 0.232377f
C13 CMP_ON AVSS 1.822119f
C14 XA5/MN0/a_324_n18# AVSS 0.3537f
C15 RST_N AVSS 0.223373f
C16 CHL_OP AVSS 0.170032f
C17 XA4/MN0/a_324_n18# AVSS 0.3537f
C18 XA2/Y AVSS 1.191276f
C19 XA2/MN0/a_324_n18# AVSS 0.353715f
C20 XA1/MN3/a_324_n18# AVSS 0.352733f
C21 CMP_OP AVSS 1.302224f
C22 XA1/MN2/a_324_n18# AVSS 0.353381f
C23 XA1/MN1/a_324_n18# AVSS 0.358f
C24 XA1/MP3/G AVSS 0.885586f
C25 EN AVSS 2.425524f
C26 XA1/MN2/S AVSS 0.199983f
C27 XA1/MN0/a_324_n18# AVSS 0.356268f
C28 ENO AVSS 0.8336f
C29 XA0/MN1/a_324_n18# AVSS 0.422415f
C30 AVDD AVSS 17.159056f
.ends

.subckt SUNSAR_SWX4_CV MP3/a_216_334# MN3/a_324_334# BULKP MP0/a_216_n18# Y AVSS A
+ MN0/a_324_n18# VREF VSUBS
XMP0 Y A VREF BULKP MP0/a_216_n18# A VSUBS SUNSAR_PCHDL
XMP1 VREF A Y BULKP A A VSUBS SUNSAR_PCHDL
XMP2 Y A VREF BULKP A A VSUBS SUNSAR_PCHDL
XMN0 Y A AVSS VSUBS MN0/a_324_n18# A SUNSAR_NCHDL
XMP3 VREF A Y BULKP A MP3/a_216_334# VSUBS SUNSAR_PCHDL
XMN1 AVSS A Y VSUBS A A SUNSAR_NCHDL
XMN2 Y A AVSS VSUBS A A SUNSAR_NCHDL
XMN3 AVSS A Y VSUBS A MN3/a_324_334# SUNSAR_NCHDL
C0 A VREF 0.184236f
C1 Y VREF 0.133073f
C2 Y A 0.147007f
C3 BULKP VREF 0.281929f
C4 BULKP A -1.606473f
C5 Y AVSS 0.180645f
C6 AVSS VSUBS 0.66508f
C7 MN3/a_324_334# VSUBS 0.422f
C8 VREF VSUBS 0.501044f
C9 A VSUBS 2.06236f
C10 Y VSUBS 0.278638f
C11 MN0/a_324_n18# VSUBS 0.422415f
C12 BULKP VSUBS 5.176431f
.ends

.subckt SUNSAR_SARCEX1_CV B Y RST AVDD AVSS MP3/a_216_334# MN3/a_324_334# BULKP MP0/a_216_n18#
+ A MN0/a_324_n18# VSUBS
XMP0 MP1/S A Y BULKP MP0/a_216_n18# A VSUBS SUNSAR_PCHDL
XMP1 AVDD A MP1/S BULKP A B VSUBS SUNSAR_PCHDL
XMP2 MP3/S B AVDD BULKP A B VSUBS SUNSAR_PCHDL
XMN0 MN1/S RST AVSS VSUBS MN0/a_324_n18# RST SUNSAR_NCHDL
XMP3 Y B MP3/S BULKP B MP3/a_216_334# VSUBS SUNSAR_PCHDL
XMN1 AVSS RST MN1/S VSUBS RST RST SUNSAR_NCHDL
XMN2 MN3/S RST AVSS VSUBS RST RST SUNSAR_NCHDL
XMN3 Y RST MN3/S VSUBS RST MN3/a_324_334# SUNSAR_NCHDL
C0 BULKP A -1.005062f
C1 AVDD BULKP 0.114602f
C2 BULKP Y 0.191403f
C3 AVDD AVSS 0.106506f
C4 AVSS Y 0.129646f
C5 BULKP B -1.00547f
C6 AVDD VSUBS 0.247044f
C7 Y VSUBS 0.484249f
C8 MN3/a_324_334# VSUBS 0.422f
C9 AVSS VSUBS 0.495556f
C10 RST VSUBS 1.501372f
C11 MN0/a_324_n18# VSUBS 0.422415f
C12 BULKP VSUBS 5.174408f
.ends

.subckt SUNSAR_SARDIGEX4_CV CMP_OP CMP_ON CP0 CP1 CN1 XA9/B DONE CN0 RST_N XA11/A
+ CEO XA4/A CKS ENO EN VREF CEIN XA12/A AVSS AVDD
XXA10 AVDD AVSS XA11/A XA9/MP1/a_216_334# XA11/MP0/a_216_n18# AVDD XA9/Y XA9/MN1/a_324_334#
+ AVSS XA11/MN0/a_324_n18# SUNSAR_IVX1_CV
XXA11 AVDD AVSS XA12/MN0/a_324_n18# CEIN AVDD XA11/MP0/a_216_n18# XA12/A XA12/MP0/a_216_n18#
+ XA11/A XA11/MN0/a_324_n18# AVSS SUNSAR_NRX1_CV
XXA12 AVDD AVSS CEO XA12/MP0/a_216_n18# XA13/MP1/a_216_n18# AVDD XA12/A XA12/MN0/a_324_n18#
+ AVSS XA13/MN1/a_324_n18# SUNSAR_IVX1_CV
XXA13 AVDD XA13/MN1/a_324_n18# XA13/MN1/a_324_334# XA13/MP1/a_216_334# XA13/MP1/a_216_n18#
+ AVSS SUNSAR_TAPCELLB_CV