* NGSPICE file created from tt_um_TT06_SAR_wulffern.ext - technology: sky130A

.subckt TT06SAR_NDIO a_n147_n147# a_n45_n45#
D0 a_n147_n147# a_n45_n45# sky130_fd_pr__diode_pw2nd_05v5 pj=1.8e+06 area=2.025e+11
C0 a_n45_n45# a_n147_n147# 0.450369f
.ends

.subckt SUNTR_PCHDL D G S B 0 a_216_n18# a_216_334#
X0 D G S B sky130_fd_pr__pfet_01v8 ad=0.6156 pd=3.3 as=0.6156 ps=3.3 w=1.08 l=0.18
C0 B G 0.33939f
C1 a_216_n18# G 0.067434f
C2 a_216_334# G 0.065834f
C3 a_216_n18# B 0.330729f
C4 a_216_334# B 0.331144f
C5 G 0 0.072524f
C6 B 0 2.80592f
C7 a_216_n18# 0 0.091271f
C8 a_216_334# 0 0.091271f
.ends

.subckt SUNTR_NCHDL D G S B a_324_n18# a_324_334#
X0 D G S B sky130_fd_pr__nfet_01v8 ad=0.6156 pd=3.3 as=0.6156 ps=3.3 w=1.08 l=0.18
C0 a_324_334# G 0.067434f
C1 a_324_n18# G 0.065834f
C2 S B 0.06295f
C3 G B 0.411913f
C4 D B 0.06295f
C5 a_324_n18# B 0.422415f
C6 a_324_334# B 0.422f
.ends

.subckt SUNTR_BFX1_CV Y AVDD AVSS MP1/B MN1/a_324_334# MP1/G A 0 MP1/a_216_334#
XMP0 AVDD A MP1/G MP1/B 0 MP0/a_216_n18# MP1/a_216_n18# SUNTR_PCHDL
XMP1 Y MP1/G AVDD MP1/B 0 MP1/a_216_n18# MP1/a_216_334# SUNTR_PCHDL
XMN0 AVSS A MP1/G 0 MN0/a_324_n18# MN1/a_324_n18# SUNTR_NCHDL
XMN1 Y MP1/G AVSS 0 MN1/a_324_n18# MN1/a_324_334# SUNTR_NCHDL
C0 AVDD MP1/B 0.181063f
C1 Y MP1/B 0.063474f
C2 AVSS AVDD 0.10499f
C3 MP1/G MP1/B 0.178777f
C4 A MP1/B 0.109691f
C5 MP1/G AVDD 0.062148f
C6 MP1/G AVSS 0.120067f
C7 MP1/G Y 0.07318f
C8 A MP1/G 0.156853f
C9 MP1/B MP1/a_216_n18# -0.310513f
C10 AVDD 0 0.276075f
C11 AVSS 0 0.45436f
C12 Y 0 0.218882f
C13 MN1/a_324_n18# 0 0.351938f
C14 MN1/a_324_334# 0 0.422f
C15 MP1/G 0 0.969276f
C16 A 0 0.55997f
C17 MN0/a_324_n18# 0 0.422415f
C18 MP1/a_216_334# 0 0.091338f
C19 MP1/B 0 4.386796f
C20 MP0/a_216_n18# 0 0.091338f
.ends

.subckt SUNTR_TIEH_CV Y AVDD AVSS MP0/B MP0/G 0 MP0/a_216_334# MP0/a_216_n18# MN0/a_324_n18#
+ MN0/a_324_334#
XMP0 Y MP0/G AVDD MP0/B 0 MP0/a_216_n18# MP0/a_216_334# SUNTR_PCHDL
XMN0 MP0/G MP0/G AVSS 0 MN0/a_324_n18# MN0/a_324_334# SUNTR_NCHDL
C0 AVSS AVDD 0.052497f
C1 AVSS MP0/G 0.060387f
C2 AVDD MP0/B 0.112171f
C3 MP0/B MP0/G 0.112479f
C4 AVDD 0 0.260853f
C5 AVSS 0 0.382267f
C6 MP0/G 0 0.78444f
C7 MN0/a_324_n18# 0 0.422415f
C8 MN0/a_324_334# 0 0.422f
C9 MP0/B 0 2.80738f
C10 MP0/a_216_n18# 0 0.091338f
C11 MP0/a_216_334# 0 0.091338f
.ends

.subckt SUNTR_TAPCELLB_CV AVDD AVSS MN1/a_324_n18# MP1/a_216_n18#
XMP1 AVDD AVDD AVDD AVDD AVSS MP1/a_216_n18# MP1/a_216_334# SUNTR_PCHDL
XMN1 AVSS AVSS AVSS AVSS MN1/a_324_n18# MN1/a_324_334# SUNTR_NCHDL
C0 AVDD AVSS 0.107602f
C1 AVSS 0 1.064147f
C2 MN1/a_324_n18# 0 0.422415f
C3 MN1/a_324_334# 0 0.422f
C4 AVDD 0 3.146627f
C5 MP1/a_216_n18# 0 0.091271f
C6 MP1/a_216_334# 0 0.091271f
.ends

.subckt tt_um_TT06_SAR_done DONE uio_out<0> uio_oe<0> VPWR VGND
Xx3 uio_out<0> VPWR VGND VPWR x4/MN0/a_324_n18# x3/MP1/G DONE VGND x4/MP0/a_216_n18#
+ SUNTR_BFX1_CV
Xx4 uio_oe<0> VPWR VGND VPWR x4/MP0/G VGND x5/MP1/a_216_n18# x4/MP0/a_216_n18# x4/MN0/a_324_n18#
+ x5/MN1/a_324_n18# SUNTR_TIEH_CV
Xx5 VPWR VGND x5/MN1/a_324_n18# x5/MP1/a_216_n18# SUNTR_TAPCELLB_CV
C0 uio_oe<0> VPWR 0.524617f
C1 x3/MP1/G x4/MP0/G 0.071481f
C2 x3/MP1/G uio_out<0> 0.07263f
C3 DONE uio_out<0> 0.05692f
C4 DONE VGND 0.094224f
C5 VGND x4/MP0/G 0.114893f
C6 VGND uio_out<0> 0.294473f
C7 x4/MP0/a_216_n18# VPWR -0.31151f
C8 VPWR uio_out<0> 0.077974f
C9 VPWR x5/MP1/a_216_n18# -0.314359f
C10 uio_oe<0> x4/MP0/G 0.055797f
C11 VGND 0 0.898244f
C12 x5/MN1/a_324_334# 0 0.422f
C13 VPWR 0 7.717914f
C14 x5/MP1/a_216_334# 0 0.091271f
C15 x4/MP0/G 0 0.782647f
C16 x5/MN1/a_324_n18# 0 0.360407f
C17 uio_oe<0> 0 0.133144f
C18 uio_out<0> 0 0.357519f
C19 x3/MN1/a_324_n18# 0 0.355196f
C20 x4/MN0/a_324_n18# 0 0.360407f
C21 x3/MP1/G 0 0.95314f
C22 DONE 0 0.720744f
C23 x3/MN0/a_324_n18# 0 0.422415f
C24 x3/MP0/a_216_n18# 0 0.091271f
.ends

.subckt sky130_fd_pr__cap_mim_m3_1_XS736D c1_n1946_n17480# m3_n1986_n17520# 0
X0 c1_n1946_n17480# m3_n1986_n17520# sky130_fd_pr__cap_mim_m3_1 l=18 w=18
X1 c1_n1946_n17480# m3_n1986_n17520# sky130_fd_pr__cap_mim_m3_1 l=18 w=18
X2 c1_n1946_n17480# m3_n1986_n17520# sky130_fd_pr__cap_mim_m3_1 l=18 w=18
X3 c1_n1946_n17480# m3_n1986_n17520# sky130_fd_pr__cap_mim_m3_1 l=18 w=18
X4 c1_n1946_n17480# m3_n1986_n17520# sky130_fd_pr__cap_mim_m3_1 l=18 w=18
X5 c1_n1946_n17480# m3_n1986_n17520# sky130_fd_pr__cap_mim_m3_1 l=18 w=18
X6 c1_n1946_n17480# m3_n1986_n17520# sky130_fd_pr__cap_mim_m3_1 l=18 w=18
X7 c1_n1946_n17480# m3_n1986_n17520# sky130_fd_pr__cap_mim_m3_1 l=18 w=18
X8 c1_n1946_n17480# m3_n1986_n17520# sky130_fd_pr__cap_mim_m3_1 l=18 w=18
C0 c1_n1946_n17480# m3_n1986_n17520# 0.265161p
C1 c1_n1946_n17480# 0 9.109429f
C2 m3_n1986_n17520# 0 65.3375f
.ends

.subckt SUNSAR_RM1 A B 0
R0 A B sky130_fd_pr__res_generic_l1 w=0.34 l=0.34
.ends

.subckt SUNSAR_CAP32C_CV C1B C2 C4 C16 CTOP AVSS C1A XRES1A/B C8 0 XRES1B/B
XXRES16 C16 XRES16/B 0 SUNSAR_RM1
XXRES2 C2 XRES2/B 0 SUNSAR_RM1
XXRES1A C1A XRES1A/B 0 SUNSAR_RM1
XXRES4 C4 XRES4/B 0 SUNSAR_RM1
XXRES1B C1B XRES1B/B 0 SUNSAR_RM1
XXRES8 C8 XRES8/B 0 SUNSAR_RM1
C0 XRES1A/B CTOP 3.552515f
C1 XRES8/B XRES2/B 0.419738f
C2 XRES8/B XRES4/B 0.449585f
C3 XRES16/B XRES2/B 0.441867f
C4 AVSS XRES2/B 4.083764f
C5 XRES16/B XRES4/B 0.058243f
C6 AVSS XRES4/B 4.927044f
C7 XRES16/B XRES8/B 0.098257f
C8 AVSS XRES8/B 6.541971f
C9 AVSS XRES16/B 9.801106f
C10 XRES1B/B XRES4/B 0.40569f
C11 XRES1B/B AVSS 3.75982f
C12 XRES2/B CTOP 6.866754f
C13 XRES4/B CTOP 13.651895f
C14 XRES1A/B XRES16/B 0.437694f
C15 XRES8/B CTOP 27.161474f
C16 XRES1A/B AVSS 3.7558f
C17 XRES16/B CTOP 54.216488f
C18 AVSS CTOP 9.918657f
C19 XRES1B/B CTOP 3.552515f
C20 CTOP 0 7.76011f
C21 XRES2/B 0 3.1129f
C22 XRES4/B 0 3.516117f
C23 XRES8/B 0 3.933522f
C24 XRES16/B 0 4.664508f
C25 AVSS 0 15.179144f
C26 C8 0 0.101745f
C27 XRES1B/B 0 2.892833f
C28 C1B 0 0.116997f
C29 C4 0 0.101745f
C30 XRES1A/B 0 1.735354f
C31 C1A 0 0.116997f
C32 C2 0 0.101745f
C33 C16 0 0.101745f
.ends

.subckt SUNSAR_CDAC7_CV CP<9> CP<8> CP<7> CP<6> CP<5> CP<4> CP<3> CP<2> CP<1> CP<0>
+ CTOP 0 AVSS
XX16ab CP<5> CP<5> CP<5> CP<6> CTOP AVSS CP<5> X16ab/XRES1A/B CP<4> 0 X16ab/XRES1B/B
+ SUNSAR_CAP32C_CV
XXC0 CP<9> CP<9> CP<9> CP<9> CTOP AVSS CP<9> XC0/XRES1A/B CP<9> 0 XC0/XRES1B/B SUNSAR_CAP32C_CV
XXC1 CP<8> CP<8> CP<8> CP<8> CTOP AVSS CP<8> XC1/XRES1A/B CP<8> 0 XC1/XRES1B/B SUNSAR_CAP32C_CV
XXC32a<0> CP<0> CP<1> CP<2> CP<7> CTOP AVSS AVSS XC32a<0>/XRES1A/B CP<3> 0 XC32a<0>/XRES1B/B
+ SUNSAR_CAP32C_CV
C0 CP<6> CP<5> 2.020583f
C1 CP<2> CP<0> 0.24075f
C2 XC32a<0>/XRES1A/B AVSS 0.082248f
C3 CP<1> CP<7> 0.188755f
C4 CP<8> AVSS 0.71211f
C5 CP<0> CP<8> 0.088104f
C6 CP<2> CP<8> 0.089552f
C7 CP<9> CTOP 0.074555f
C8 CP<1> CP<3> 0.220707f
C9 CP<9> CP<5> 0.103206f
C10 XC1/XRES1B/B AVSS 0.082248f
C11 XC1/XRES1B/B XC32a<0>/XRES1A/B 0.635098f
C12 X16ab/XRES1B/B XC0/XRES1A/B 0.635098f
C13 CP<0> CP<7> 0.081678f
C14 AVSS CTOP -1.633715f
C15 CP<5> AVSS 0.068641f
C16 CP<5> CP<0> 0.20259f
C17 CP<2> CP<7> 0.083155f
C18 CP<4> CP<8> 0.089689f
C19 CP<7> CP<8> 2.575701f
C20 CP<0> CP<3> 0.084671f
C21 X16ab/XRES1B/B AVSS 0.082248f
C22 CP<8> CTOP 0.122672f
C23 CP<5> CP<8> 0.359484f
C24 CP<2> CP<3> 2.212231f
C25 CP<0> CP<1> 1.909476f
C26 CP<3> CP<8> 0.0896f
C27 X16ab/XRES1A/B XC32a<0>/XRES1B/B 0.635098f
C28 X16ab/XRES1A/B AVSS 0.082248f
C29 CP<6> CP<8> 0.090483f
C30 CP<2> CP<1> 1.995553f
C31 CP<4> CP<7> 0.07877f
C32 XC0/XRES1A/B AVSS 0.082248f
C33 CP<5> CP<4> 1.57931f
C34 CP<5> CP<7> 0.394951f
C35 CP<9> AVSS 0.343312f
C36 CP<1> CP<8> 0.089524f
C37 CP<4> CP<3> 1.263888f
C38 CP<3> CP<7> 0.178438f
C39 CP<6> CP<4> 0.07931f
C40 XC32a<0>/XRES1B/B AVSS 0.082248f
C41 CP<6> CP<7> 1.652261f
C42 CP<5> CP<3> 0.229397f
C43 CP<9> CP<8> 0.889573f
C44 XC32a<0>/XRES2/B 0 3.1129f
C45 XC32a<0>/XRES4/B 0 3.516117f
C46 XC32a<0>/XRES8/B 0 3.933522f
C47 XC32a<0>/XRES16/B 0 4.664508f
C48 CP<3> 0 1.126461f
C49 XC32a<0>/XRES1B/B 0 2.892833f
C50 CP<0> 0 1.167979f
C51 CP<2> 0 0.834649f
C52 XC32a<0>/XRES1A/B 0 1.735354f
C53 CP<1> 0 1.392542f
C54 CP<7> 0 1.060384f
C55 CTOP 0 20.24516f
C56 XC1/XRES2/B 0 3.1129f
C57 XC1/XRES4/B 0 3.516117f
C58 XC1/XRES8/B 0 3.933522f
C59 XC1/XRES16/B 0 4.664508f
C60 AVSS 0 51.996902f
C61 XC1/XRES1B/B 0 2.892833f
C62 XC1/XRES1A/B 0 1.735354f
C63 CP<8> 0 3.823549f
C64 XC0/XRES2/B 0 3.1129f
C65 XC0/XRES4/B 0 3.516117f
C66 XC0/XRES8/B 0 3.933522f
C67 XC0/XRES16/B 0 4.664508f
C68 XC0/XRES1B/B 0 2.892833f
C69 XC0/XRES1A/B 0 1.735354f
C70 CP<5> 0 2.378288f
C71 X16ab/XRES2/B 0 3.1129f
C72 X16ab/XRES4/B 0 3.516117f
C73 X16ab/XRES8/B 0 3.933522f
C74 X16ab/XRES16/B 0 4.664508f
C75 CP<4> 0 0.757332f
C76 X16ab/XRES1B/B 0 2.892833f
C77 X16ab/XRES1A/B 0 1.735354f
C78 CP<6> 0 0.645761f
C79 CP<9> 0 2.290488f
.ends

.subckt SUNSAR_PCHDL D G S B 0 a_216_n18# a_216_334#
X0 D G S B sky130_fd_pr__pfet_01v8 ad=0.6156 pd=3.3 as=0.6156 ps=3.3 w=1.08 l=0.18
C0 D S 0.050207f
C1 B G 0.341895f
C2 a_216_n18# G 0.067588f
C3 a_216_334# G 0.066018f
C4 a_216_n18# B 0.330729f
C5 a_216_334# B 0.331144f
C6 G 0 0.073301f
C7 B 0 2.80584f
C8 a_216_n18# 0 0.091271f
C9 a_216_334# 0 0.091271f
.ends

.subckt SUNSAR_NCHDL D G S B a_324_n18# a_324_334#
X0 D G S B sky130_fd_pr__nfet_01v8 ad=0.6156 pd=3.3 as=0.6156 ps=3.3 w=1.08 l=0.18
C0 D S 0.050207f
C1 a_324_n18# G 0.066018f
C2 a_324_334# G 0.067588f
C3 S B 0.06638f
C4 G B 0.415197f
C5 D B 0.06638f
C6 a_324_n18# B 0.422415f
C7 a_324_334# B 0.422f
.ends

.subckt SUNSAR_NDX1_CV Y AVDD AVSS MN1/a_324_334# B A BULKP BULKN MP0/a_216_n18# MN1/S
+ MP1/a_216_334# MN0/a_324_n18#
XMP0 Y A AVDD BULKP BULKN MP0/a_216_n18# B SUNSAR_PCHDL
XMP1 AVDD B Y BULKP BULKN A MP1/a_216_334# SUNSAR_PCHDL
XMN0 MN1/S A AVSS BULKN MN0/a_324_n18# B SUNSAR_NCHDL
XMN1 Y B MN1/S BULKN A MN1/a_324_334# SUNSAR_NCHDL
C0 B Y 0.059989f
C1 BULKP B -0.247362f
C2 A BULKP -0.246413f
C3 AVDD AVSS 0.070991f
C4 Y AVDD 0.077947f
C5 BULKP AVDD 0.154562f
C6 AVSS BULKN 0.392705f
C7 MN1/a_324_334# BULKN 0.422f
C8 AVDD BULKN 0.326781f
C9 MN0/a_324_n18# BULKN 0.422415f
C10 Y BULKN 0.252959f
C11 B BULKN 0.538316f
C12 BULKP BULKN 3.595959f
C13 A BULKN 0.53919f
C14 MP1/a_216_334# BULKN 0.091338f
C15 MP0/a_216_n18# BULKN 0.091338f
.ends

.subckt SUNSAR_NRX1_CV AVDD AVSS MN1/a_324_334# B BULKP BULKN MP0/a_216_n18# Y MP1/a_216_334#
+ A MN0/a_324_n18#
XMP0 MP1/S A AVDD BULKP BULKN MP0/a_216_n18# B SUNSAR_PCHDL
XMP1 Y B MP1/S BULKP BULKN A MP1/a_216_334# SUNSAR_PCHDL
XMN0 Y A AVSS BULKN MN0/a_324_n18# B SUNSAR_NCHDL
XMN1 AVSS B Y BULKN A MN1/a_324_334# SUNSAR_NCHDL
C0 BULKP AVDD 0.122023f
C1 BULKP B -0.247362f
C2 A BULKP -0.246413f
C3 Y AVSS 0.112939f
C4 AVDD AVSS 0.071423f
C5 B Y 0.059989f
C6 BULKP Y 0.076318f
C7 AVSS BULKN 0.506278f
C8 Y BULKN 0.247181f
C9 MN1/a_324_334# BULKN 0.422f
C10 MN0/a_324_n18# BULKN 0.422415f
C11 AVDD BULKN 0.25764f
C12 B BULKN 0.538314f
C13 BULKP BULKN 3.595964f
C14 MP1/a_216_334# BULKN 0.091338f
C15 A BULKN 0.539194f
C16 MP0/a_216_n18# BULKN 0.091338f
.ends

.subckt SUNSAR_IVX1_CV BULKP AVSS Y BULKN MP0/a_216_n18# MP0/a_216_334# AVDD A MN0/a_324_n18#
+ MN0/a_324_334#
XMP0 Y A AVDD BULKP BULKN MP0/a_216_n18# MP0/a_216_334# SUNSAR_PCHDL
XMN0 Y A AVSS BULKN MN0/a_324_n18# MN0/a_324_334# SUNSAR_NCHDL
C0 AVDD AVSS 0.051104f
C1 BULKP A 0.109299f
C2 BULKP Y 0.061437f
C3 BULKP AVDD 0.103136f
C4 AVSS BULKN 0.367376f
C5 A BULKN 0.631634f
C6 Y BULKN 0.268384f
C7 MN0/a_324_n18# BULKN 0.422415f
C8 MN0/a_324_334# BULKN 0.422f
C9 AVDD BULKN 0.246592f
C10 BULKP BULKN 2.80697f
C11 MP0/a_216_n18# BULKN 0.091338f
C12 MP0/a_216_334# BULKN 0.091338f
.ends

.subckt SUNSAR_TAPCELLB_CV AVDD MN1/a_324_n18# MN1/a_324_334# AVSS MP1/a_216_334#
+ MP1/a_216_n18#
XMP1 AVDD AVDD AVDD AVDD AVSS MP1/a_216_n18# MP1/a_216_334# SUNSAR_PCHDL
XMN1 AVSS AVSS AVSS AVSS MN1/a_324_n18# MN1/a_324_334# SUNSAR_NCHDL
C0 AVDD AVSS 0.104949f
C1 AVSS 0 1.048908f
C2 MN1/a_324_n18# 0 0.422415f
C3 MN1/a_324_334# 0 0.422f
C4 AVDD 0 3.134387f
C5 MP1/a_216_n18# 0 0.091271f
C6 MP1/a_216_334# 0 0.091271f
.ends

.subckt SUNSAR_SARKICKHX1_CV CI BULKP AVDD AVSS MP6_DMY/a_216_334# MN6/a_324_334#
+ MP0/S CKN MP0/a_216_n18# CK BULKN MN0/a_324_n18#
XMP1_DMY AVDD AVDD AVDD BULKP BULKN CKN AVDD SUNSAR_PCHDL
XMP4_DMY AVDD AVDD AVDD BULKP BULKN AVDD AVDD SUNSAR_PCHDL
XMP0 AVDD CKN MP0/S BULKP BULKN MP0/a_216_n18# AVDD SUNSAR_PCHDL
XMN0 MP0/S CKN AVSS BULKN MN0/a_324_n18# CI SUNSAR_NCHDL
XMN1 MP0/S CI MP0/S BULKN CKN CI SUNSAR_NCHDL
XMN2 MP0/S CI MP0/S BULKN CI CI SUNSAR_NCHDL
XMN3 MP0/S CI MP0/S BULKN CI CI SUNSAR_NCHDL
XMN4 MP0/S CI MP0/S BULKN CI CI SUNSAR_NCHDL
XMN6 AVDD CK MP0/S BULKN CI MN6/a_324_334# SUNSAR_NCHDL
XMN5 MP0/S CI MP0/S BULKN CI CK SUNSAR_NCHDL
XMP3_DMY AVDD AVDD AVDD BULKP BULKN AVDD AVDD SUNSAR_PCHDL
XMP6_DMY AVDD AVDD AVDD BULKP BULKN AVDD MP6_DMY/a_216_334# SUNSAR_PCHDL
XMP2_DMY AVDD AVDD AVDD BULKP BULKN AVDD AVDD SUNSAR_PCHDL
XMP5_DMY AVDD AVDD AVDD BULKP BULKN AVDD AVDD SUNSAR_PCHDL
C0 AVSS AVDD 0.180248f
C1 CKN MP0/S 0.058228f
C2 MP0/S AVDD 0.104608f
C3 MP0/S BULKP 0.11694f
C4 AVSS CI 0.05309f
C5 CKN BULKP -0.227092f
C6 BULKP AVDD -3.515122f
C7 MP0/S CI -0.056784f
C8 MP0/S AVSS 0.208328f
C9 MP6_DMY/a_216_334# BULKN 0.091338f
C10 AVDD BULKN 0.74157f
C11 BULKP BULKN 7.544365f
C12 CK BULKN 0.372036f
C13 MN6/a_324_334# BULKN 0.422f
C14 CI BULKN 1.791641f
C15 AVSS BULKN 0.555322f
C16 MN0/a_324_n18# BULKN 0.422415f
C17 MP0/S BULKN 0.370985f
C18 MP0/a_216_n18# BULKN 0.091338f
C19 CKN BULKN 0.56349f
.ends

.subckt SUNSAR_SARCMPHX1_CV CI CK VMR N2 AVDD AVSS MP6/a_216_334# MN6/a_324_334# BULKP
+ MP0/a_216_n18# CO BULKN MN0/a_324_n18# N1
XMP0 AVDD CK N1 BULKP BULKN MP0/a_216_n18# CK SUNSAR_PCHDL
XMP1 N2 CK AVDD BULKP BULKN CK AVDD SUNSAR_PCHDL
XMN0 N1 CK AVSS BULKN MN0/a_324_n18# CI SUNSAR_NCHDL
XMP2 AVDD AVDD N2 BULKP BULKN CK CK SUNSAR_PCHDL
XMN1 N2 CI N1 BULKN CK CI SUNSAR_NCHDL
XMP3 CO CK AVDD BULKP BULKN AVDD VMR SUNSAR_PCHDL
XMP4 AVDD VMR CO BULKP BULKN CK VMR SUNSAR_PCHDL
XMN2 N1 CI N2 BULKN CI CI SUNSAR_NCHDL
XMP5 CO VMR AVDD BULKP BULKN VMR VMR SUNSAR_PCHDL
XMN3 N2 CI N1 BULKN CI CI SUNSAR_NCHDL
XMN4 N1 CI N2 BULKN CI CI SUNSAR_NCHDL
XMP6 AVDD VMR CO BULKP BULKN VMR MP6/a_216_334# SUNSAR_PCHDL
XMN5 N2 CI N1 BULKN CI VMR SUNSAR_NCHDL
XMN6 CO VMR N2 BULKN CI MN6/a_324_334# SUNSAR_NCHDL
C0 N1 AVDD 0.059184f
C1 BULKP CK -1.349649f
C2 BULKP CO 0.063159f
C3 N1 CI 0.175052f
C4 N2 CO 0.076147f
C5 N2 BULKP 0.063625f
C6 N2 AVSS 0.095751f
C7 CO VMR 0.076819f
C8 BULKP VMR -1.552184f
C9 AVDD CK 0.06305f
C10 AVDD CO 0.222193f
C11 AVDD BULKP -0.442314f
C12 AVDD AVSS 0.157463f
C13 N1 CK 0.072917f
C14 N1 BULKP 0.069686f
C15 N1 AVSS 0.158948f
C16 AVDD N2 0.080721f
C17 CI AVSS 0.057076f
C18 N1 N2 0.189549f
C19 AVDD VMR 0.050722f
C20 AVSS BULKN 0.533831f
C21 MN6/a_324_334# BULKN 0.422f
C22 VMR BULKN 0.606867f
C23 MP6/a_216_334# BULKN 0.091338f
C24 CI BULKN 1.771056f
C25 CK BULKN 0.626869f
C26 CO BULKN 0.213838f
C27 BULKP BULKN 7.544966f
C28 N2 BULKN 0.221339f
C29 MN0/a_324_n18# BULKN 0.422415f
C30 AVDD BULKN 0.609607f
C31 N1 BULKN 0.369132f
C32 MP0/a_216_n18# BULKN 0.091338f
.ends

.subckt SUNSAR_IVX4_CV AVDD AVSS MP3/a_216_334# MN3/a_324_334# BULKP MP0/a_216_n18#
+ Y BULKN A MN0/a_324_n18#
XMP0 Y A AVDD BULKP BULKN MP0/a_216_n18# A SUNSAR_PCHDL
XMP1 AVDD A Y BULKP BULKN A A SUNSAR_PCHDL
XMP2 Y A AVDD BULKP BULKN A A SUNSAR_PCHDL
XMN0 Y A AVSS BULKN MN0/a_324_n18# A SUNSAR_NCHDL
XMP3 AVDD A Y BULKP BULKN A MP3/a_216_334# SUNSAR_PCHDL
XMN1 AVSS A Y BULKN A A SUNSAR_NCHDL
XMN2 Y A AVSS BULKN A A SUNSAR_NCHDL
XMN3 AVSS A Y BULKN A MN3/a_324_334# SUNSAR_NCHDL
C0 Y A 0.147008f
C1 AVDD A 0.064966f
C2 BULKP AVDD 0.166303f
C3 Y AVSS 0.174863f
C4 BULKP A -1.606473f
C5 AVDD AVSS 0.131604f
C6 AVSS A 0.064848f
C7 AVDD Y 0.146264f
C8 A BULKN 2.062361f
C9 AVSS BULKN 0.622587f
C10 MN3/a_324_334# BULKN 0.422f
C11 MP3/a_216_334# BULKN 0.091338f
C12 Y BULKN 0.278637f
C13 MN0/a_324_n18# BULKN 0.422415f
C14 AVDD BULKN 0.372455f
C15 BULKP BULKN 5.176431f
C16 MP0/a_216_n18# BULKN 0.091338f
.ends

.subckt SUNSAR_SARCMPX1_CV CPI CNI CK_CMP XA3a/A CK_SAMPLE DONE XA9/A CPO XA4/MP0/S
+ AVDD CNO AVSS
XXA10 XA9/A AVDD AVSS XA11/MN0/a_324_n18# XA12/Y XA11/Y AVDD AVSS XA9/MP0/a_216_334#
+ XA10/MN1/S XA11/MP0/a_216_n18# XA9/MN0/a_324_334# SUNSAR_NDX1_CV
XXA11 AVDD AVSS XA12/MN0/a_324_n18# DONE AVDD AVSS XA11/MP0/a_216_n18# XA11/Y XA12/MP0/a_216_n18#
+ CK_SAMPLE XA11/MN0/a_324_n18# SUNSAR_NRX1_CV
XXA12 AVDD AVSS XA12/Y AVSS XA12/MP0/a_216_n18# XA13/MP1/a_216_n18# AVDD CK_CMP XA12/MN0/a_324_n18#
+ XA13/MN1/a_324_n18# SUNSAR_IVX1_CV
XXA13 AVDD XA13/MN1/a_324_n18# XA13/MN1/a_324_334# AVSS XA13/MP1/a_216_334# XA13/MP1/a_216_n18#
+ SUNSAR_TAPCELLB_CV
XXA0 AVDD XA0/MN1/a_324_n18# XA1/MN0/a_324_n18# AVSS XA1/MP0/a_216_n18# XA0/MP1/a_216_n18#
+ SUNSAR_TAPCELLB_CV
XXA1 CPI AVDD AVDD AVSS XA2/MP0/a_216_n18# XA2/MN0/a_324_n18# XA1/MP0/S XA9/A XA1/MP0/a_216_n18#
+ XA9/Y AVSS XA1/MN0/a_324_n18# SUNSAR_SARKICKHX1_CV
XXA2 CPI XA9/Y XA3/CO XA2/N2 AVDD AVSS XA2/MP6/a_216_334# XA2/MN6/a_324_334# AVDD
+ XA2/MP0/a_216_n18# XA3a/A AVSS XA2/MN0/a_324_n18# XA3/N1 SUNSAR_SARCMPHX1_CV
XXA3 CNI XA9/Y XA3a/A XA3/N2 AVDD AVSS XA4/MP0/a_216_n18# XA4/MN0/a_324_n18# AVDD
+ XA3/MP0/a_216_n18# XA3/CO AVSS XA3/MN0/a_324_n18# XA3/N1 SUNSAR_SARCMPHX1_CV
XXA4 CNI AVDD AVDD AVSS XA9/MP0/a_216_n18# XA9/MN0/a_324_n18# XA4/MP0/S XA9/A XA4/MP0/a_216_n18#
+ XA9/Y AVSS XA4/MN0/a_324_n18# SUNSAR_SARKICKHX1_CV
XXA3a AVDD AVSS XA3/MP0/a_216_n18# XA3/MN0/a_324_n18# AVDD XA3a/MP0/a_216_n18# CNO
+ AVSS XA3a/A XA3a/MN0/a_324_n18# SUNSAR_IVX4_CV
XXA2a AVDD AVSS XA3a/MP0/a_216_n18# XA3a/MN0/a_324_n18# AVDD XA2/MP6/a_216_334# CPO
+ AVSS XA3/CO XA2/MN6/a_324_334# SUNSAR_IVX4_CV
XXA9 AVDD AVSS XA9/Y AVSS XA9/MP0/a_216_n18# XA9/MP0/a_216_334# AVDD XA9/A XA9/MN0/a_324_n18#
+ XA9/MN0/a_324_334# SUNSAR_IVX1_CV
C0 XA9/Y AVDD 0.164728f
C1 XA13/MP1/a_216_n18# AVDD -0.311986f
C2 XA3/CO XA9/A 0.141462f
C3 XA12/Y CK_CMP 0.05138f
C4 XA3a/MP0/a_216_n18# AVDD -0.312264f
C5 AVDD XA4/MP0/a_216_n18# -0.311987f
C6 AVDD XA2/MP6/a_216_334# -0.313518f
C7 XA9/MP0/a_216_334# AVDD -0.311309f
C8 XA3/CO XA3/N1 0.289212f
C9 XA11/MP0/a_216_n18# AVDD -0.312939f
C10 XA3/CO AVDD 1.166637f
C11 XA3/N1 CNO 0.113873f
C12 DONE CK_CMP 0.058881f
C13 XA3a/A CPO 0.108133f
C14 XA3a/A XA9/Y 0.391167f
C15 XA1/MP0/S AVDD 0.073122f
C16 CNI XA9/Y 0.382485f
C17 XA1/MP0/a_216_n18# AVDD -0.311986f
C18 XA9/MP0/a_216_n18# AVDD -0.311986f
C19 XA3a/A XA3/CO 1.092423f
C20 XA9/A AVDD 0.189383f
C21 XA9/Y CPI 0.27081f
C22 XA12/Y CK_SAMPLE 0.106092f
C23 XA3/N1 AVDD 0.195531f
C24 XA2/MP0/a_216_n18# AVDD -0.311986f
C25 XA11/Y CK_SAMPLE 0.050093f
C26 XA11/Y XA12/Y 0.130476f
C27 XA3a/A XA9/A 0.136678f
C28 CNI XA9/A 0.362147f
C29 XA3a/A XA3/N1 0.309118f
C30 XA3a/A AVDD 0.912932f
C31 XA3/CO XA4/MP0/S 0.095491f
C32 XA9/A CPI 0.297822f
C33 XA3/CO XA9/Y 0.24121f
C34 XA12/MP0/a_216_n18# AVDD -0.312799f
C35 XA3/N1 CPI 0.115376f
C36 XA11/Y XA9/A 0.268591f
C37 AVDD XA3/MP0/a_216_n18# -0.313369f
C38 XA9/A XA9/Y 1.524979f
C39 XA12/Y AVDD 0.490048f
C40 XA3/N1 CPO 0.068565f
C41 XA3/N1 XA9/Y 0.106124f
C42 XA11/Y AVDD 0.055244f
C43 XA9/MN0/a_324_n18# AVSS 0.355152f
C44 XA3/CO AVSS 2.700073f
C45 CPO AVSS 0.178234f
C46 XA2/MN6/a_324_334# AVSS 0.353692f
C47 XA3a/A AVSS 2.521704f
C48 XA3/MN0/a_324_n18# AVSS 0.353692f
C49 CNO AVSS 0.179699f
C50 XA3a/MN0/a_324_n18# AVSS 0.353692f
C51 XA4/MN0/a_324_n18# AVSS 0.3537f
C52 XA4/MP0/S AVSS 0.414246f
C53 CNI AVSS 3.621781f
C54 XA3/N2 AVSS 0.246915f
C55 XA9/Y AVSS 4.611301f
C56 XA2/N2 AVSS 0.246915f
C57 XA2/MN0/a_324_n18# AVSS 0.353761f
C58 XA3/N1 AVSS 1.207811f
C59 AVDD AVSS 46.225956f
C60 CPI AVSS 3.746344f
C61 XA1/MN0/a_324_n18# AVSS 0.356268f
C62 XA1/MP0/S AVSS 0.422681f
C63 XA9/A AVSS 4.708538f
C64 XA0/MN1/a_324_n18# AVSS 0.422415f
C65 XA0/MP1/a_216_n18# AVSS 0.091271f
C66 XA13/MN1/a_324_n18# AVSS 0.356268f
C67 XA13/MN1/a_324_334# AVSS 0.422f
C68 XA13/MP1/a_216_334# AVSS 0.091271f
C69 CK_CMP AVSS 0.538462f
C70 XA12/MN0/a_324_n18# AVSS 0.356976f
C71 XA11/MN0/a_324_n18# AVSS 0.354241f
C72 DONE AVSS 0.474555f
C73 CK_SAMPLE AVSS 0.470196f
C74 XA9/MN0/a_324_334# AVSS 0.355744f
C75 XA12/Y AVSS 0.688419f
C76 XA11/Y AVSS 0.835235f
.ends

.subckt SUNSAR_NCHDLR D G S B a_324_n18# a_324_334#
X0 D G S B sky130_fd_pr__nfet_01v8 ad=0.6156 pd=3.3 as=0.6156 ps=3.3 w=1.08 l=0.18
C0 D S 0.050207f
C1 a_324_n18# G 0.066018f
C2 a_324_334# G 0.067588f
C3 S B 0.06638f
C4 G B 0.415197f
C5 D B 0.06638f
C6 a_324_n18# B 0.422415f
C7 a_324_334# B 0.422f
.ends

.subckt SUNSAR_CAP_BSSW_CV A B 0
R0 A m3_6948_120# sky130_fd_pr__res_generic_m3 w=0.4 l=0.36
R1 m3_252_280# B sky130_fd_pr__res_generic_m3 w=0.4 l=0.36
C0 A B 65.019196f
C1 m3_6948_120# B 0.172147f
C2 m3_6876_120# B 0.0666f
C3 m3_324_280# A 0.0666f
C4 m3_252_280# A 0.105547f
C5 B 0 13.2906f
C6 A 0 13.2887f
.ends

.subckt SUNSAR_CAP_BSSW5_CV B 0 A
XXCAPB0 A B 0 SUNSAR_CAP_BSSW_CV
XXCAPB1 A B 0 SUNSAR_CAP_BSSW_CV
XXCAPB2 A B 0 SUNSAR_CAP_BSSW_CV
XXCAPB3 A B 0 SUNSAR_CAP_BSSW_CV
XXCAPB4 A B 0 SUNSAR_CAP_BSSW_CV
C0 A B 54.004265f
C1 B 0 54.06679f
C2 A 0 55.079098f
.ends

.subckt SUNSAR_TIEH_CV Y BULKP AVDD AVSS MP0/G BULKN MP0/a_216_n18# MP0/a_216_334#
+ MN0/a_324_n18# MN0/a_324_334#
XMP0 Y MP0/G AVDD BULKP BULKN MP0/a_216_n18# MP0/a_216_334# SUNSAR_PCHDL
XMN0 MP0/G MP0/G AVSS BULKN MN0/a_324_n18# MN0/a_324_334# SUNSAR_NCHDL
C0 BULKP AVDD 0.106173f
C1 BULKP MP0/G 0.112786f
C2 AVSS AVDD 0.051104f
C3 MP0/G AVSS 0.057963f
C4 AVDD BULKN 0.24902f
C5 AVSS BULKN 0.367715f
C6 MP0/G BULKN 0.790179f
C7 MN0/a_324_n18# BULKN 0.422415f
C8 MN0/a_324_334# BULKN 0.422f
C9 BULKP BULKN 2.806854f
C10 MP0/a_216_n18# BULKN 0.091338f
C11 MP0/a_216_334# BULKN 0.091338f
.ends

.subckt SUNSAR_TIEL_CV BULKP AVDD AVSS MP0/G Y BULKN MP0/a_216_n18# MP0/a_216_334#
+ MN0/a_324_n18# MN0/a_324_334#
XMP0 MP0/G MP0/G AVDD BULKP BULKN MP0/a_216_n18# MP0/a_216_334# SUNSAR_PCHDL
XMN0 Y MP0/G AVSS BULKN MN0/a_324_n18# MN0/a_324_334# SUNSAR_NCHDL
C0 BULKP AVDD 0.103703f
C1 BULKP MP0/G 0.161174f
C2 AVSS AVDD 0.051104f
C3 MP0/G AVDD 0.057965f
C4 AVDD BULKN 0.249049f
C5 AVSS BULKN 0.370369f
C6 MP0/G BULKN 0.708387f
C7 Y BULKN 0.05974f
C8 MN0/a_324_n18# BULKN 0.422415f
C9 MN0/a_324_334# BULKN 0.422f
C10 BULKP BULKN 2.806659f
C11 MP0/a_216_n18# BULKN 0.091338f
C12 MP0/a_216_334# BULKN 0.091338f
.ends

.subckt SUNSAR_TGPD_CV AVSS MP2/B MN2/a_324_334# MP0/S B MP0/a_216_n18# A 0 C MP2/a_216_334#
+ MN0/a_324_n18# AVDD
XMP1_DMY B AVDD AVDD MP2/B 0 C C SUNSAR_PCHDL
XMP0 AVDD C MP0/S MP2/B 0 MP0/a_216_n18# AVDD SUNSAR_PCHDL
XMN0 AVSS C MP0/S 0 MN0/a_324_n18# C SUNSAR_NCHDL
XMP2 A C B MP2/B 0 AVDD MP2/a_216_334# SUNSAR_PCHDL
XMN1 B C AVSS 0 C MP0/S SUNSAR_NCHDL
XMN2 A MP0/S B 0 C MN2/a_324_334# SUNSAR_NCHDL
C0 C MP2/B -0.388363f
C1 B MP0/S 0.056087f
C2 C MP0/S 0.148714f
C3 MP2/B AVDD -0.506518f
C4 MP0/S AVSS 0.094973f
C5 C AVDD 0.07024f
C6 AVSS AVDD 0.090372f
C7 B A 0.108f
C8 MP0/S MP2/B 0.064367f
C9 AVDD 0 0.478784f
C10 AVSS 0 0.352742f
C11 A 0 0.204323f
C12 MN2/a_324_334# 0 0.422f
C13 MP2/B 0 4.387254f
C14 MP2/a_216_334# 0 0.091338f
C15 MP0/S 0 0.747699f
C16 MN0/a_324_n18# 0 0.422415f
C17 MP0/a_216_n18# 0 0.091338f
C18 B 0 0.060014f
C19 C 0 0.995573f
.ends

.subckt SUNSAR_SARBSSWCTRL_CV GN GNG TIE_H BULKP AVDD AVSS MN1/a_324_334# C BULKN
+ MP0/a_216_n18# MP1/a_216_334# MN0/a_324_n18#
XMP0 GNG C GN BULKP BULKN MP0/a_216_n18# GN SUNSAR_PCHDL
XMP1 AVDD GN GNG BULKP BULKN C MP1/a_216_334# SUNSAR_PCHDL
XMN0 MN1/S C AVSS BULKN MN0/a_324_n18# TIE_H SUNSAR_NCHDL
XMN1 GN TIE_H MN1/S BULKN C MN1/a_324_334# SUNSAR_NCHDL
C0 BULKP GN -0.16538f
C1 BULKP C -0.234337f
C2 AVSS AVDD 0.059137f
C3 BULKP GNG -0.056171f
C4 GN AVDD 0.071443f
C5 GN AVSS 0.082479f
C6 C GN 0.105655f
C7 BULKP AVDD 0.119037f
C8 AVDD BULKN 0.263047f
C9 AVSS BULKN 0.384798f
C10 TIE_H BULKN 0.37082f
C11 GN BULKN 0.410388f
C12 MN1/a_324_334# BULKN 0.422f
C13 C BULKN 0.568156f
C14 MN0/a_324_n18# BULKN 0.422415f
C15 MP1/a_216_334# BULKN 0.091338f
C16 BULKP BULKN 3.595271f
C17 MP0/a_216_n18# BULKN 0.091338f
.ends

.subckt SUNSAR_SARBSSW_CV VI CK TIE_L VO1 M4/G VO2 XA3/B CKN XA4/GNG AVDD AVSS
XM1 VI M4/G VO1 AVSS M1/a_324_n18# M2/a_324_n18# SUNSAR_NCHDLR
XM2 VI M4/G VO1 AVSS M2/a_324_n18# M3/a_324_n18# SUNSAR_NCHDLR
XM3 VI M4/G VO1 AVSS M3/a_324_n18# M4/a_324_n18# SUNSAR_NCHDLR
XM4 VI M4/G VO1 AVSS M4/a_324_n18# M5/a_324_n18# SUNSAR_NCHDLR
XM5 VI TIE_L VO2 AVSS M5/a_324_n18# M6/a_324_n18# SUNSAR_NCHDLR
XXCAPB1 XA3/B AVSS XA4/GNG SUNSAR_CAP_BSSW5_CV
XM6 VI TIE_L VO2 AVSS M6/a_324_n18# M7/a_324_n18# SUNSAR_NCHDLR
XM7 VI TIE_L VO2 AVSS M7/a_324_n18# M8/a_324_n18# SUNSAR_NCHDLR
XM8 VI TIE_L VO2 AVSS M8/a_324_n18# M8/a_324_334# SUNSAR_NCHDLR
XXA0 AVDD AVSS CKN AVSS XA0/MP0/a_216_n18# XA3/MP0/a_216_n18# AVDD CK XA0/MN0/a_324_n18#
+ XA3/MN0/a_324_n18# SUNSAR_IVX1_CV
XXA1 XA1/Y AVDD AVDD AVSS XA1/MP0/G AVSS XA4/MP1/a_216_334# XA7/MP1/a_216_n18# XA4/MN1/a_324_334#
+ XA7/MN1/a_324_n18# SUNSAR_TIEH_CV
XXA2 AVDD AVDD AVSS XA2/MP0/G TIE_L AVSS XA7/MP1/a_216_334# XA5/MP1/a_216_n18# XA7/MN1/a_324_334#
+ XA5/MN1/a_324_n18# SUNSAR_TIEL_CV
XXA3 AVSS AVDD XA4/MN0/a_324_n18# XA3/MP0/S XA3/B XA3/MP0/a_216_n18# VI AVSS CKN XA4/MP0/a_216_n18#
+ XA3/MN0/a_324_n18# AVDD SUNSAR_TGPD_CV
XXA5 AVDD XA5/MN1/a_324_n18# XA5/MN1/a_324_334# AVSS XA5/MP1/a_216_334# XA5/MP1/a_216_n18#
+ SUNSAR_TAPCELLB_CV
XXA4 M4/G XA4/GNG XA1/Y AVDD AVDD AVSS XA4/MN1/a_324_334# CKN AVSS XA4/MP0/a_216_n18#
+ XA4/MP1/a_216_334# XA4/MN0/a_324_n18# SUNSAR_SARBSSWCTRL_CV
XXA5b AVDD XA5b/MN1/a_324_n18# XA0/MN0/a_324_n18# AVSS XA0/MP0/a_216_n18# XA5b/MP1/a_216_n18#
+ SUNSAR_TAPCELLB_CV
XXA7 AVDD XA7/MN1/a_324_n18# XA7/MN1/a_324_334# AVSS XA7/MP1/a_216_334# XA7/MP1/a_216_n18#
+ SUNSAR_TAPCELLB_CV
C0 CK CKN 0.081692f
C1 AVDD AVSS 0.15268f
C2 AVDD XA1/Y 0.335195f
C3 TIE_L VO2 0.067503f
C4 XA1/MP0/G AVSS 0.086644f
C5 XA1/MP0/G XA1/Y 0.210055f
C6 M4/G XA4/GNG 0.159364f
C7 AVDD XA3/MP0/a_216_n18# -0.315912f
C8 AVSS CKN 0.456081f
C9 VO2 AVSS 0.115254f
C10 TIE_L AVSS 0.570893f
C11 XA1/Y CKN 0.083971f
C12 XA2/MP0/G AVDD 0.154505f
C13 M4/G CKN 0.164954f
C14 VI CKN 0.158203f
C15 VI VO2 0.402032f
C16 VI TIE_L 0.431895f
C17 XA4/MP0/a_216_n18# AVDD -0.315004f
C18 XA3/MP0/S CKN 0.35416f
C19 XA7/MP1/a_216_n18# AVDD -0.314016f
C20 XA3/B AVDD 1.133969f
C21 XA5/MP1/a_216_n18# AVDD -0.311986f
C22 XA4/GNG AVDD 2.405915f
C23 AVDD CKN 0.381615f
C24 VO1 AVSS 0.112136f
C25 XA1/Y AVSS 0.269286f
C26 M4/G AVSS 0.641192f
C27 VI AVSS 0.44414f
C28 XA4/MP1/a_216_334# AVDD -0.310882f
C29 M4/G VO1 0.121857f
C30 M4/G XA1/Y 0.191529f
C31 TIE_L XA2/MP0/G 0.062843f
C32 XA4/GNG XA3/B 0.074834f
C33 VI VO1 0.509495f
C34 VI M4/G 0.733023f
C35 XA7/MP1/a_216_334# AVDD -0.311812f
C36 XA0/MP0/a_216_n18# AVDD -0.310529f
C37 XA3/B CKN 0.220083f
C38 VI XA3/MP0/S 0.083601f
C39 XA4/GNG CKN 0.13356f
C40 XA7/MN1/a_324_n18# 0 0.359583f
C41 AVSS 0 2.93973f
C42 XA5b/MN1/a_324_n18# 0 0.422415f
C43 AVDD 0 16.012844f
C44 XA5b/MP1/a_216_n18# 0 0.091271f
C45 XA1/Y 0 0.690197f
C46 CKN 0 1.768971f
C47 XA4/MN0/a_324_n18# 0 0.359583f
C48 XA5/MN1/a_324_334# 0 0.422f
C49 XA5/MP1/a_216_334# 0 0.091271f
C50 XA3/MP0/S 0 0.743486f
C51 XA3/MN0/a_324_n18# 0 0.359583f
C52 XA2/MP0/G 0 0.708335f
C53 XA7/MN1/a_324_334# 0 0.359583f
C54 XA5/MN1/a_324_n18# 0 0.360407f
C55 XA1/MP0/G 0 0.788614f
C56 XA4/MN1/a_324_334# 0 0.359583f
C57 CK 0 0.513823f
C58 XA0/MN0/a_324_n18# 0 0.359583f
C59 M8/a_324_n18# 0 0.356977f
C60 M8/a_324_334# 0 0.422f
C61 M6/a_324_n18# 0 0.356977f
C62 M7/a_324_n18# 0 0.356977f
C63 XA3/B 0 54.41209f
C64 XA4/GNG 0 53.065117f
C65 VO2 0 0.317444f
C66 TIE_L 0 2.408263f
C67 M5/a_324_n18# 0 0.356977f
C68 M3/a_324_n18# 0 0.356977f
C69 M4/a_324_n18# 0 0.356977f
C70 VO1 0 0.370636f
C71 M4/G 0 2.475647f
C72 VI 0 1.254522f
C73 M1/a_324_n18# 0 0.422415f
C74 M2/a_324_n18# 0 0.356977f
.ends

.subckt SUNSAR_SAREMX1_CV B EN ENO AVDD MP3/a_216_334# MN3/a_324_334# MP3/G A MN2/S
+ BULKP MP0/a_216_n18# AVSS BULKN RST_N MN0/a_324_n18#
XMP0 AVDD RST_N MP3/G BULKP BULKN MP0/a_216_n18# MP1/a_216_n18# SUNSAR_PCHDL
XMP1 MP2/S B ENO BULKP BULKN MP1/a_216_n18# MP2/a_216_n18# SUNSAR_PCHDL
XMP2 MP3/S A MP2/S BULKP BULKN MP2/a_216_n18# MP3/a_216_n18# SUNSAR_PCHDL
XMN0 MN2/S EN MP3/G BULKN MN0/a_324_n18# MN1/a_324_n18# SUNSAR_NCHDL
XMP3 AVDD MP3/G MP3/S BULKP BULKN MP3/a_216_n18# MP3/a_216_334# SUNSAR_PCHDL
XMN1 MN2/S B AVSS BULKN MN1/a_324_n18# MN2/a_324_n18# SUNSAR_NCHDL
XMN2 AVSS A MN2/S BULKN MN2/a_324_n18# MN3/a_324_n18# SUNSAR_NCHDL
XMN3 ENO MP3/G AVSS BULKN MN3/a_324_n18# MN3/a_324_334# SUNSAR_NCHDL
C0 MP3/S AVDD 0.067256f
C1 MP2/S ENO 0.064105f
C2 B A 0.058881f
C3 BULKP MP2/a_216_n18# -0.311038f
C4 ENO AVDD 0.155663f
C5 ENO AVSS 0.064883f
C6 MP2/S AVDD 0.054398f
C7 BULKP ENO 0.182005f
C8 BULKP MP1/a_216_n18# -0.311038f
C9 AVSS AVDD 0.157524f
C10 MP3/G A 0.105132f
C11 BULKP AVDD 0.233317f
C12 BULKP AVSS 0.058487f
C13 BULKP A 0.108551f
C14 MP3/S MP3/G 0.063428f
C15 BULKP B 0.113772f
C16 ENO MP3/G 0.133485f
C17 MP2/S MP3/G 0.064105f
C18 MP3/G AVDD 0.124994f
C19 ENO MP3/S 0.064105f
C20 MP3/G AVSS 0.050803f
C21 BULKP MP3/a_216_n18# -0.311038f
C22 RST_N MP3/G 0.054556f
C23 MN2/S AVSS 0.206972f
C24 BULKP MP3/G 0.480172f
C25 AVDD BULKN 0.390025f
C26 AVSS BULKN 0.695296f
C27 MN3/a_324_n18# BULKN 0.35253f
C28 MN3/a_324_334# BULKN 0.422f
C29 A BULKN 0.498033f
C30 MN2/a_324_n18# BULKN 0.352522f
C31 B BULKN 0.513991f
C32 MN1/a_324_n18# BULKN 0.352522f
C33 MP3/a_216_334# BULKN 0.091338f
C34 MP3/G BULKN 0.827536f
C35 EN BULKN 0.386445f
C36 MN2/S BULKN 0.207484f
C37 MN0/a_324_n18# BULKN 0.422415f
C38 ENO BULKN 0.246284f
C39 BULKP BULKN 7.539519f
C40 MP0/a_216_n18# BULKN 0.091338f
.ends

.subckt SUNSAR_SARLTX1_CV RST_N EN LCK_N AVDD AVSS MN2/a_324_334# A BULKP MP0/a_216_n18#
+ CHL BULKN MP2/a_216_334# MN0/a_324_n18#
XMP0 MP1/S RST_N AVDD BULKP BULKN MP0/a_216_n18# RST_N SUNSAR_PCHDL
XMP1 MP2/S RST_N MP1/S BULKP BULKN RST_N RST_N SUNSAR_PCHDL
XMN0 MN1/S A AVSS BULKN MN0/a_324_n18# LCK_N SUNSAR_NCHDL
XMP2 CHL RST_N MP2/S BULKP BULKN RST_N MP2/a_216_334# SUNSAR_PCHDL
XMN1 MN2/S LCK_N MN1/S BULKN A EN SUNSAR_NCHDL
XMN2 CHL EN MN2/S BULKN LCK_N MN2/a_324_334# SUNSAR_NCHDL
C0 BULKP MP2/S -0.050867f
C1 BULKP RST_N -1.319845f
C2 BULKP CHL 0.074842f
C3 AVDD AVSS 0.088964f
C4 AVDD BULKP 0.143379f
C5 MP1/S BULKP -0.050867f
C6 EN BULKN 0.372036f
C7 MN2/a_324_334# BULKN 0.422f
C8 LCK_N BULKN 0.335836f
C9 AVSS BULKN 0.428199f
C10 RST_N BULKN 0.123012f
C11 CHL BULKN 0.260933f
C12 BULKP BULKN 4.387078f
C13 MP2/a_216_334# BULKN 0.091338f