* NGSPICE file created from tt_um_TT06_SAR_wulffern.ext - technology: sky130A

* Replacing the lpe port list (../tech/scripts/fixlpe)
.subckt tt_um_TT06_SAR_wulffern VPWR VGND ui_in[7] ui_in[6] ui_in[5] ui_in[4] ui_in[3] ui_in[2] ui_in[1] ui_in[0]
+ uo_out[7] uo_out[6] uo_out[5] uo_out[4] uo_out[3] uo_out[2] uo_out[1] uo_out[0] uio_in[7] uio_in[6] uio_in[5] uio_in[4] uio_in[3] uio_in[2] uio_in[1] uio_in[0]
+ uio_out[7] uio_out[6] uio_out[5] uio_out[4] uio_out[3] uio_out[2] uio_out[1] uio_out[0] uio_oe[7] uio_oe[6] uio_oe[5] uio_oe[4] uio_oe[3] uio_oe[2] uio_oe[1] uio_oe[0] ua[7] ua[6] ua[5] ua[4] ua[3] ua[2] ua[1] ua[0]
+ ena clk rst_n
*.subckt tt_um_TT06_SAR_wulffern ena rst_n ua[2] ua[3] ua[4] ua[5] ua[6] ua[7]
*+ ui_in[1] ui_in[2] ui_in[3] ui_in[4] ui_in[5] ui_in[6] ui_in[7] uio_in[0] uio_in[1]
*+ uio_in[2] uio_in[3] uio_in[4] uio_in[5] uio_in[6] uio_in[7] uio_oe[1] uio_oe[2]
*+ uio_oe[3] uio_oe[4] uio_oe[5] uio_oe[6] uio_oe[7] uio_out[1] uio_out[2] uio_out[3]
*+ uio_out[4] uio_out[5] uio_out[6] uio_out[7] uo_out[2] uo_out[7] uio_oe[0] ui_in[0]
*+ uo_out[6] uo_out[4] ua[0] uo_out[5] clk uo_out[1] ua[1] uo_out[0] uo_out[3] uio_out[0]
*+ VPWR VGND
X0 SUNSAR_SAR8B_CV_0.XDAC2.CP<6>.t7 SUNSAR_SAR8B_CV_0.XDAC1.CP<6>.t8 VGND.t27 VGND.t25 sky130_fd_pr__nfet_01v8 ad=0.378 pd=1.78 as=0.6156 ps=3.3 w=1.08 l=0.18
X1 VPWR.t28 SUNSAR_SAR8B_CV_0.XA6.XA1.XA1.MP3.G SUNSAR_SAR8B_CV_0.XA6.XA1.XA1.MP3.S VPWR.t27 sky130_fd_pr__pfet_01v8 ad=0.6156 pd=3.3 as=0.6156 ps=3.3 w=1.08 l=0.18
X2 SUNSAR_SAR8B_CV_0.XA0.XA11.MP1.S SUNSAR_SAR8B_CV_0.XA0.XA11.A VPWR.t212 VPWR.t6 sky130_fd_pr__pfet_01v8 ad=0.378 pd=1.78 as=0.6156 ps=3.3 w=1.08 l=0.18
X3 SUNSAR_SAR8B_CV_0.XDAC2.CP<6>.t0 SUNSAR_SAR8B_CV_0.XDAC1.CP<6>.t10 VPWR.t22 VPWR.t21 sky130_fd_pr__pfet_01v8 ad=0.378 pd=1.78 as=0.6156 ps=3.3 w=1.08 l=0.18
X4 VGND.t486 SUNSAR_SAR8B_CV_0.XA4.XA1.CHL_OP.t3 SUNSAR_SAR8B_CV_0.XA4.CP0.t1 VGND.t96 sky130_fd_pr__nfet_01v8 ad=0.378 pd=1.78 as=0.378 ps=1.78 w=1.08 l=0.18
R0 TIE_L1 TIE_L sky130_fd_pr__res_generic_m4 w=0.3 l=0.3
X5 SUNSAR_SAR8B_CV_0.XA20.XA4.MP0.S SUNSAR_SAR8B_CV_0.SARN SUNSAR_SAR8B_CV_0.XA20.XA4.MP0.S VGND.t11 sky130_fd_pr__nfet_01v8 ad=0.378 pd=1.78 as=4.536 ps=21.36 w=1.08 l=0.18
X6 SUNSAR_CAPT8B_CV_0.XG12.XA6.A SUNSAR_CAPT8B_CV_0.XG12.XA5.A VGND.t153 VGND.t64 sky130_fd_pr__nfet_01v8 ad=0.6156 pd=3.3 as=0.6156 ps=3.3 w=1.08 l=0.18
X7 SUNSAR_SAR8B_CV_0.XA20.XA3.N2 SUNSAR_SAR8B_CV_0.XA20.XA1.CK.t5 VPWR.t558 VPWR.t557 sky130_fd_pr__pfet_01v8 ad=0.378 pd=1.78 as=0.378 ps=1.78 w=1.08 l=0.18
R1 SUNSAR_SAR8B_CV_0.XDAC1.XC1.XRES1B.B SUNSAR_SAR8B_CV_0.XDAC1.CP<8> sky130_fd_pr__res_generic_l1 w=0.34 l=0.34
X8 VGND.t540 SUNSAR_SAR8B_CV_0.XA0.CMP_OP.t8 SUNSAR_SAR8B_CV_0.XA7.XA1.XA1.MN2.S VGND.t78 sky130_fd_pr__nfet_01v8 ad=0.6156 pd=3.3 as=0.6156 ps=3.3 w=1.08 l=0.18
X9 SUNSAR_CAPT8B_CV_0.XG12.XA6.A SUNSAR_CAPT8B_CV_0.XG12.XA5.A VPWR.t213 VPWR.t75 sky130_fd_pr__pfet_01v8 ad=0.6156 pd=3.3 as=0.6156 ps=3.3 w=1.08 l=0.18
X10 SUNSAR_SAR8B_CV_0.XA4.XA12.A SUNSAR_SAR8B_CV_0.XA4.CEIN SUNSAR_SAR8B_CV_0.XA4.XA11.MP1.S VPWR.t94 sky130_fd_pr__pfet_01v8 ad=0.6156 pd=3.3 as=0.378 ps=1.78 w=1.08 l=0.18
X11 VGND.t499 SUNSAR_SAR8B_CV_0.XA1.XA1.CHL_ON.t3 SUNSAR_SAR8B_CV_0.XDAC2.CP<7>.t1 VGND.t25 sky130_fd_pr__nfet_01v8 ad=0.6156 pd=3.3 as=0.378 ps=1.78 w=1.08 l=0.18
X12 SUNSAR_SAR8B_CV_0.XA7.XA1.XA1.MP3.S SUNSAR_SAR8B_CV_0.XA0.CMP_OP.t29 SUNSAR_SAR8B_CV_0.XA7.XA1.XA1.MP2.S VPWR.t71 sky130_fd_pr__pfet_01v8 ad=0.6156 pd=3.3 as=0.6156 ps=3.3 w=1.08 l=0.18
X13 SUNSAR_SAR8B_CV_0.XA0.XA6.MP3.S SUNSAR_SAR8B_CV_0.XDAC1.CP<9>.t8 VPWR.t593 VPWR.t6 sky130_fd_pr__pfet_01v8 ad=0.378 pd=1.78 as=0.378 ps=1.78 w=1.08 l=0.18
X14 VPWR.t589 SUNSAR_SAR8B_CV_0.XA1.XA1.CHL_ON.t4 SUNSAR_SAR8B_CV_0.XDAC2.CP<7>.t5 VPWR.t21 sky130_fd_pr__pfet_01v8 ad=0.6156 pd=3.3 as=0.378 ps=1.78 w=1.08 l=0.18
X15 SUNSAR_SAR8B_CV_0.XA3.XA1.XA5.MN2.S SUNSAR_SAR8B_CV_0.XA3.XA1.XA5.LCK_N SUNSAR_SAR8B_CV_0.XA3.XA1.XA5.MN1.S VGND.t31 sky130_fd_pr__nfet_01v8 ad=0.378 pd=1.78 as=0.378 ps=1.78 w=1.08 l=0.18
R2 SUNSAR_SAR8B_CV_0.XDAC1.X16ab.XRES8.B SUNSAR_SAR8B_CV_0.XDAC1.CP<4> sky130_fd_pr__res_generic_l1 w=0.34 l=0.34
X16 VGND.t66 VGND.t63 VGND.t65 VGND.t64 sky130_fd_pr__nfet_01v8 ad=0.6156 pd=3.3 as=0 ps=0 w=1.08 l=0.18
X17 SUNSAR_CAPT8B_CV_0.XI14.QN SUNSAR_CAPT8B_CV_0.XI14.XA7.CN SUNSAR_CAPT8B_CV_0.XI14.XA6.MN1.S VGND.t49 sky130_fd_pr__nfet_01v8 ad=0.6156 pd=3.3 as=0.378 ps=1.78 w=1.08 l=0.18
X18 VPWR.t77 VPWR.t74 VPWR.t76 VPWR.t75 sky130_fd_pr__pfet_01v8 ad=0.6156 pd=3.3 as=0 ps=0 w=1.08 l=0.18
X19 SUNSAR_SAR8B_CV_0.XA4.XA9.B SUNSAR_SAR8B_CV_0.D<3>.t8 SUNSAR_SAR8B_CV_0.XA4.XA6.MP3.S VPWR.t94 sky130_fd_pr__pfet_01v8 ad=0.6156 pd=3.3 as=0.378 ps=1.78 w=1.08 l=0.18
X20 VGND.t518 SUNSAR_SAR8B_CV_0.CK_SAMPLE.t23 SUNSAR_SAR8B_CV_0.XA4.XA6.MN1.S VGND.t96 sky130_fd_pr__nfet_01v8 ad=0.378 pd=1.78 as=0.378 ps=1.78 w=1.08 l=0.18
X21 SUNSAR_SAR8B_CV_0.XDAC1.CP<8>.t5 SUNSAR_SAR8B_CV_0.XA0.XA1.CHL_OP.t3 VPWR.t543 VPWR.t6 sky130_fd_pr__pfet_01v8 ad=0.378 pd=1.78 as=0.6156 ps=3.3 w=1.08 l=0.18
X22 VGND.t464 clk.t0 SUNSAR_CAPT8B_CV_0.XA4.MP1.G VGND.t9 sky130_fd_pr__nfet_01v8 ad=0.378 pd=1.78 as=0.6156 ps=3.3 w=1.08 l=0.18
X23 VPWR.t570 SUNSAR_SAR8B_CV_0.XA3.CN1.t8 SUNSAR_SAR8B_CV_0.D<4>.t7 VPWR.t102 sky130_fd_pr__pfet_01v8 ad=0.378 pd=1.78 as=0.378 ps=1.78 w=1.08 l=0.18
X24 VGND.t69 VGND.t67 VGND.t68 VGND.t25 sky130_fd_pr__nfet_01v8 ad=0.6156 pd=3.3 as=0 ps=0 w=1.08 l=0.18
X25 VPWR.t84 VPWR.t82 VPWR.t83 VPWR.t21 sky130_fd_pr__pfet_01v8 ad=0.6156 pd=3.3 as=0 ps=0 w=1.08 l=0.18
X26 SUNSAR_SAR8B_CV_0.XA20.XA12.Y SUNSAR_SAR8B_CV_0.XA20.CK_CMP VGND.t12 VGND.t11 sky130_fd_pr__nfet_01v8 ad=0.6156 pd=3.3 as=0.6156 ps=3.3 w=1.08 l=0.18
X27 VGND.t476 SUNSAR_SAR8B_CV_0.D<7>.t8 SUNSAR_SAR8B_CV_0.XDAC1.CP<9>.t0 VGND.t475 sky130_fd_pr__nfet_01v8 ad=0.6156 pd=3.3 as=0.378 ps=1.78 w=1.08 l=0.18
X28 SUNSAR_SAR8B_CV_0.D<5>.t4 SUNSAR_SAR8B_CV_0.XDAC2.CP<5>.t9 VPWR.t432 VPWR.t9 sky130_fd_pr__pfet_01v8 ad=0.378 pd=1.78 as=0.378 ps=1.78 w=1.08 l=0.18
X29 SUNSAR_SAR8B_CV_0.XA0.XA1.CHL_ON.t0 SUNSAR_SAR8B_CV_0.EN.t59 SUNSAR_SAR8B_CV_0.XA0.XA1.XA5.MP2.S VPWR.t6 sky130_fd_pr__pfet_01v8 ad=0.6156 pd=3.3 as=0.378 ps=1.78 w=1.08 l=0.18
X30 SUNSAR_SAR8B_CV_0.XA7.CN1.t1 SUNSAR_SAR8B_CV_0.XA7.XA1.CHL_ON.t2 VGND.t424 VGND.t78 sky130_fd_pr__nfet_01v8 ad=0.378 pd=1.78 as=0.378 ps=1.78 w=1.08 l=0.18
X31 SUNSAR_SAR8B_CV_0.XA0.XA10.A SUNSAR_SAR8B_CV_0.XA0.XA9.B SUNSAR_SAR8B_CV_0.XA0.XA9.MN1.S VGND.t13 sky130_fd_pr__nfet_01v8 ad=0.6156 pd=3.3 as=0.378 ps=1.78 w=1.08 l=0.18
X32 SUNSAR_SAR8B_CV_0.XA2.XA10.A SUNSAR_SAR8B_CV_0.XA2.XA9.A VPWR.t11 VPWR.t9 sky130_fd_pr__pfet_01v8 ad=0.378 pd=1.78 as=0.6156 ps=3.3 w=1.08 l=0.18
X33 VPWR.t489 SUNSAR_SAR8B_CV_0.XA6.CN1.t8 SUNSAR_SAR8B_CV_0.D<1>.t6 VPWR.t27 sky130_fd_pr__pfet_01v8 ad=0.6156 pd=3.3 as=0.378 ps=1.78 w=1.08 l=0.18
X34 VGND.t421 SUNSAR_SAR8B_CV_0.XA6.CN1.t10 SUNSAR_SAR8B_CV_0.D<1>.t1 VGND.t92 sky130_fd_pr__nfet_01v8 ad=0.378 pd=1.78 as=0.378 ps=1.78 w=1.08 l=0.18
X35 SUNSAR_SAR8B_CV_0.XA7.CN1.t4 SUNSAR_SAR8B_CV_0.XA7.XA1.CHL_ON.t4 VPWR.t494 VPWR.t71 sky130_fd_pr__pfet_01v8 ad=0.378 pd=1.78 as=0.378 ps=1.78 w=1.08 l=0.18
X36 SUNSAR_CAPT8B_CV_0.XA6.XA1.MN1.S SUNSAR_CAPT8B_CV_0.XA6.A VGND.t21 VGND.t9 sky130_fd_pr__nfet_01v8 ad=0.378 pd=1.78 as=0.6156 ps=3.3 w=1.08 l=0.18
X37 SUNSAR_SAR8B_CV_0.XA20.XA4.MP0.S SUNSAR_SAR8B_CV_0.SARN SUNSAR_SAR8B_CV_0.XA20.XA4.MP0.S VGND.t11 sky130_fd_pr__nfet_01v8 ad=0.378 pd=1.78 as=0 ps=0 w=1.08 l=0.18
X38 SUNSAR_SAR8B_CV_0.XA5.CEIN SUNSAR_SAR8B_CV_0.XA4.XA12.A VPWR.t216 VPWR.t94 sky130_fd_pr__pfet_01v8 ad=0.6156 pd=3.3 as=0.6156 ps=3.3 w=1.08 l=0.18
X39 VPWR.t224 SUNSAR_SAR8B_CV_0.XA6.XA9.B SUNSAR_SAR8B_CV_0.XA6.XA10.A VPWR.t27 sky130_fd_pr__pfet_01v8 ad=0.6156 pd=3.3 as=0.378 ps=1.78 w=1.08 l=0.18
X40 VGND.t491 SUNSAR_SAR8B_CV_0.XDAC1.CP<8>.t10 SUNSAR_SAR8B_CV_0.XDAC2.CP<8>.t1 VGND.t490 sky130_fd_pr__nfet_01v8 ad=0.6156 pd=3.3 as=0.378 ps=1.78 w=1.08 l=0.18
X41 SUNSAR_SAR8B_CV_0.XDAC2.CP<4>.t7 SUNSAR_SAR8B_CV_0.XDAC1.CP<4>.t9 VPWR.t458 VPWR.t9 sky130_fd_pr__pfet_01v8 ad=0.378 pd=1.78 as=0.378 ps=1.78 w=1.08 l=0.18
R3 SUNSAR_SAR8B_CV_0.XDAC2.CP<1> SUNSAR_SAR8B_CV_0.XDAC2.XC32a<0>.XRES2.B sky130_fd_pr__res_generic_l1 w=0.34 l=0.34
X42 SUNSAR_CAPT8B_CV_0.XA6.B SUNSAR_CAPT8B_CV_0.XA5.B VGND.t166 VGND.t9 sky130_fd_pr__nfet_01v8 ad=0.6156 pd=3.3 as=0.6156 ps=3.3 w=1.08 l=0.18
X43 SUNSAR_SAR8B_CV_0.XA1.XA1.CHL_OP.t1 SUNSAR_SAR8B_CV_0.XA1.EN SUNSAR_SAR8B_CV_0.XA1.XA1.XA4.MN2.S VGND.t25 sky130_fd_pr__nfet_01v8 ad=0.6156 pd=3.3 as=0.378 ps=1.78 w=1.08 l=0.18
X44 SUNSAR_SAR8B_CV_0.XA1.XA1.CHL_OP.t0 SUNSAR_SAR8B_CV_0.EN.t13 SUNSAR_SAR8B_CV_0.XA1.XA1.XA4.MP2.S VPWR.t21 sky130_fd_pr__pfet_01v8 ad=0.6156 pd=3.3 as=0.378 ps=1.78 w=1.08 l=0.18
X45 VPWR.t468 SUNSAR_SAR8B_CV_0.XA6.CP0.t8 SUNSAR_SAR8B_CV_0.XDAC2.CP<0>.t5 VPWR.t27 sky130_fd_pr__pfet_01v8 ad=0.6156 pd=3.3 as=0.378 ps=1.78 w=1.08 l=0.18
X46 SUNSAR_SAR8B_CV_0.D<5>.t5 SUNSAR_SAR8B_CV_0.XDAC2.CP<5>.t10 VPWR.t433 VPWR.t9 sky130_fd_pr__pfet_01v8 ad=0.378 pd=1.78 as=0.6156 ps=3.3 w=1.08 l=0.18
X47 VGND.t442 SUNSAR_SAR8B_CV_0.XA5.XA1.CHL_ON.t2 SUNSAR_SAR8B_CV_0.XA5.CN1.t1 VGND.t22 sky130_fd_pr__nfet_01v8 ad=0.378 pd=1.78 as=0.378 ps=1.78 w=1.08 l=0.18
R4 SUNSAR_SAR8B_CV_0.D<7> SUNSAR_SAR8B_CV_0.XDAC2.XC0.XRES1A.B sky130_fd_pr__res_generic_l1 w=0.34 l=0.34
X48 VPWR.t511 SUNSAR_SAR8B_CV_0.XA5.XA1.CHL_ON.t4 SUNSAR_SAR8B_CV_0.XA5.CN1.t6 VPWR.t17 sky130_fd_pr__pfet_01v8 ad=0.378 pd=1.78 as=0.378 ps=1.78 w=1.08 l=0.18
R5 SUNSAR_SAR8B_CV_0.XDAC2.CP<8> SUNSAR_SAR8B_CV_0.XDAC2.XC1.XRES1A.B sky130_fd_pr__res_generic_l1 w=0.34 l=0.34
X49 SUNSAR_SAR8B_CV_0.XA1.XA1.XA1.MN2.S SUNSAR_SAR8B_CV_0.XA1.EN SUNSAR_SAR8B_CV_0.XA1.XA1.XA1.MP3.G VGND.t25 sky130_fd_pr__nfet_01v8 ad=0.6156 pd=3.3 as=0.6156 ps=3.3 w=1.08 l=0.18
X50 VPWR.t501 SUNSAR_SAR8B_CV_0.DONE.t11 tt_um_TT06_SAR_done_0.x3.MP1.G VPWR.t500 sky130_fd_pr__pfet_01v8 ad=0.6156 pd=3.3 as=0.6156 ps=3.3 w=1.08 l=0.18
X51 VGND.t388 SUNSAR_SAR8B_CV_0.XA7.CP0.t8 SUNSAR_SAR8B_CV_0.XA7.CN0 VGND.t78 sky130_fd_pr__nfet_01v8 ad=0.378 pd=1.78 as=0.378 ps=1.78 w=1.08 l=0.18
X52 SUNSAR_SAR8B_CV_0.XB1.CKN.t0 SUNSAR_SAR8B_CV_0.CK_SAMPLE_BSSW.t2 VGND.t352 VGND.t39 sky130_fd_pr__nfet_01v8 ad=0.6156 pd=3.3 as=0.6156 ps=3.3 w=1.08 l=0.18
X53 VPWR.t542 SUNSAR_SAR8B_CV_0.EN.t57 SUNSAR_SAR8B_CV_0.XA1.XA1.XA1.MP3.G VPWR.t21 sky130_fd_pr__pfet_01v8 ad=0.6156 pd=3.3 as=0.6156 ps=3.3 w=1.08 l=0.18
X54 SUNSAR_SAR8B_CV_0.XA7.CN1.t2 SUNSAR_SAR8B_CV_0.XA7.XA1.CHL_ON.t5 VGND.t425 VGND.t78 sky130_fd_pr__nfet_01v8 ad=0.378 pd=1.78 as=0.6156 ps=3.3 w=1.08 l=0.18
X55 SUNSAR_CAPT8B_CV_0.XF11.XA4.MP1.S SUNSAR_CAPT8B_CV_0.XF11.XA6.A VPWR.t237 VPWR.t106 sky130_fd_pr__pfet_01v8 ad=0.378 pd=1.78 as=0.6156 ps=3.3 w=1.08 l=0.18
X56 VPWR.t455 SUNSAR_SAR8B_CV_0.XA7.CP0.t10 SUNSAR_SAR8B_CV_0.XA7.CN0 VPWR.t71 sky130_fd_pr__pfet_01v8 ad=0.378 pd=1.78 as=0.378 ps=1.78 w=1.08 l=0.18
X57 SUNSAR_SAR8B_CV_0.XA20.XA1.MP0.S SUNSAR_SAR8B_CV_0.SARP.t11 SUNSAR_SAR8B_CV_0.XA20.XA1.MP0.S VGND.t11 sky130_fd_pr__nfet_01v8 ad=0.378 pd=1.78 as=4.536 ps=21.36 w=1.08 l=0.18
X58 SUNSAR_SAR8B_CV_0.XA7.CN1.t6 SUNSAR_SAR8B_CV_0.XA7.XA1.CHL_ON.t6 VPWR.t495 VPWR.t71 sky130_fd_pr__pfet_01v8 ad=0.378 pd=1.78 as=0.6156 ps=3.3 w=1.08 l=0.18
X59 SUNSAR_CAPT8B_CV_0.XD09.XA6.MN1.S SUNSAR_CAPT8B_CV_0.XD09.XA6.A VGND.t176 VGND.t133 sky130_fd_pr__nfet_01v8 ad=0.378 pd=1.78 as=0.6156 ps=3.3 w=1.08 l=0.18
X60 SUNSAR_CAPT8B_CV_0.XB07.XA3.MN1.S SUNSAR_SAR8B_CV_0.D<7>.t12 VGND.t480 VGND.t479 sky130_fd_pr__nfet_01v8 ad=0.378 pd=1.78 as=0.6156 ps=3.3 w=1.08 l=0.18
X61 SUNSAR_SAR8B_CV_0.XB1.XA4.TIE_H SUNSAR_SAR8B_CV_0.XB1.XA1.MP0.G VPWR.t242 VPWR.t241 sky130_fd_pr__pfet_01v8 ad=0.6156 pd=3.3 as=0.6156 ps=3.3 w=1.08 l=0.18
X62 SUNSAR_CAPT8B_CV_0.XF11.XA5.A SUNSAR_CAPT8B_CV_0.XF11.XA1.Y.t2 SUNSAR_CAPT8B_CV_0.XF11.XA3.MN1.S VGND.t57 sky130_fd_pr__nfet_01v8 ad=0.6156 pd=3.3 as=0.378 ps=1.78 w=1.08 l=0.18
X63 SUNSAR_CAPT8B_CV_0.XH13.XA3.MP1.S SUNSAR_SAR8B_CV_0.D<1>.t11 VPWR.t513 VPWR.t196 sky130_fd_pr__pfet_01v8 ad=0.378 pd=1.78 as=0.6156 ps=3.3 w=1.08 l=0.18
X64 SUNSAR_SAR8B_CV_0.XA0.XA11.A SUNSAR_SAR8B_CV_0.XA0.XA10.A VGND.t15 VGND.t14 sky130_fd_pr__nfet_01v8 ad=0.6156 pd=3.3 as=0.6156 ps=3.3 w=1.08 l=0.18
X65 SUNSAR_SAR8B_CV_0.XA2.XA9.A SUNSAR_SAR8B_CV_0.XA3.EN VGND.t180 VGND.t16 sky130_fd_pr__nfet_01v8 ad=0.6156 pd=3.3 as=0.6156 ps=3.3 w=1.08 l=0.18
R6 SUNSAR_SAR8B_CV_0.XDAC1.XC0.XRES4.B SUNSAR_SAR8B_CV_0.XDAC1.CP<9> sky130_fd_pr__res_generic_l1 w=0.34 l=0.34
X66 SUNSAR_SAR8B_CV_0.XB2.XA2.MP0.G SUNSAR_SAR8B_CV_0.XB2.XA2.MP0.G VPWR.t247 VPWR.t246 sky130_fd_pr__pfet_01v8 ad=0.6156 pd=3.3 as=0.6156 ps=3.3 w=1.08 l=0.18
X67 SUNSAR_CAPT8B_CV_0.XD09.XA1.Y.t0 SUNSAR_SAR8B_CV_0.DONE.t19 VGND.t436 VGND.t133 sky130_fd_pr__nfet_01v8 ad=0.6156 pd=3.3 as=0.6156 ps=3.3 w=1.08 l=0.18
X68 SUNSAR_SAR8B_CV_0.XA1.XA1.XA4.MN1.S SUNSAR_SAR8B_CV_0.XA0.CMP_OP.t19 VGND.t549 VGND.t25 sky130_fd_pr__nfet_01v8 ad=0.378 pd=1.78 as=0.6156 ps=3.3 w=1.08 l=0.18
X69 SUNSAR_SAR8B_CV_0.XA1.XA1.XA4.MP1.S SUNSAR_SAR8B_CV_0.EN.t33 VPWR.t531 VPWR.t21 sky130_fd_pr__pfet_01v8 ad=0.378 pd=1.78 as=0.6156 ps=3.3 w=1.08 l=0.18
X70 SUNSAR_SAR8B_CV_0.XA4.XA1.XA5.LCK_N SUNSAR_SAR8B_CV_0.XA5.EN VPWR.t248 VPWR.t94 sky130_fd_pr__pfet_01v8 ad=0.6156 pd=3.3 as=0.6156 ps=3.3 w=1.08 l=0.18
X71 SUNSAR_SAR8B_CV_0.XA6.XA11.A SUNSAR_SAR8B_CV_0.XA6.XA10.A VPWR.t225 VPWR.t27 sky130_fd_pr__pfet_01v8 ad=0.6156 pd=3.3 as=0.6156 ps=3.3 w=1.08 l=0.18
X72 SUNSAR_SAR8B_CV_0.XA5.XA1.XA4.MN2.S SUNSAR_SAR8B_CV_0.XA5.XA1.XA5.LCK_N SUNSAR_SAR8B_CV_0.XA5.XA1.XA4.MN1.S VGND.t22 sky130_fd_pr__nfet_01v8 ad=0.378 pd=1.78 as=0.378 ps=1.78 w=1.08 l=0.18
X73 SUNSAR_CAPT8B_CV_0.XB07.QN SUNSAR_CAPT8B_CV_0.XB07.XA7.CN SUNSAR_CAPT8B_CV_0.XB07.XA7.MP1.S VPWR.t165 sky130_fd_pr__pfet_01v8 ad=0.6156 pd=3.3 as=0.378 ps=1.78 w=1.08 l=0.18
X74 SUNSAR_CAPT8B_CV_0.XE10.XA6.MN1.S SUNSAR_CAPT8B_CV_0.XE10.XA6.A VGND.t191 VGND.t88 sky130_fd_pr__nfet_01v8 ad=0.378 pd=1.78 as=0.6156 ps=3.3 w=1.08 l=0.18
X75 SUNSAR_SAR8B_CV_0.XA0.XA6.MN1.S SUNSAR_SAR8B_CV_0.CK_SAMPLE.t35 VGND.t529 VGND.t528 sky130_fd_pr__nfet_01v8 ad=0.378 pd=1.78 as=0.6156 ps=3.3 w=1.08 l=0.18
X76 VGND.t396 SUNSAR_SAR8B_CV_0.XA2.XA1.CHL_OP.t3 SUNSAR_SAR8B_CV_0.XDAC1.CP<4>.t1 VGND.t16 sky130_fd_pr__nfet_01v8 ad=0.6156 pd=3.3 as=0.378 ps=1.78 w=1.08 l=0.18
X77 ua[1].t4 SUNSAR_SAR8B_CV_0.XB1.XA4.GN SUNSAR_SAR8B_CV_0.SARP.t3 VGND.t192 sky130_fd_pr__nfet_01v8 ad=0.6156 pd=3.3 as=0.6156 ps=3.3 w=1.08 l=0.18
X78 SUNSAR_SAR8B_CV_0.XA5.XA1.XA4.MP2.S SUNSAR_SAR8B_CV_0.EN.t55 SUNSAR_SAR8B_CV_0.XA5.XA1.XA4.MP1.S VPWR.t17 sky130_fd_pr__pfet_01v8 ad=0.378 pd=1.78 as=0.378 ps=1.78 w=1.08 l=0.18
X79 SUNSAR_CAPT8B_CV_0.XE10.XA6.MP1.S SUNSAR_CAPT8B_CV_0.XE10.XA6.A VPWR.t253 VPWR.t145 sky130_fd_pr__pfet_01v8 ad=0.378 pd=1.78 as=0.6156 ps=3.3 w=1.08 l=0.18
X80 SUNSAR_SAR8B_CV_0.XB1.TIE_L.t0 SUNSAR_SAR8B_CV_0.XB2.XA2.MP0.G VGND.t182 VGND.t35 sky130_fd_pr__nfet_01v8 ad=0.6156 pd=3.3 as=0.6156 ps=3.3 w=1.08 l=0.18
X81 SUNSAR_CAPT8B_CV_0.XF11.XA7.MN1.S uo_out[3].t2 VGND.t379 VGND.t57 sky130_fd_pr__nfet_01v8 ad=0.378 pd=1.78 as=0.6156 ps=3.3 w=1.08 l=0.18
X82 SUNSAR_SAR8B_CV_0.XA6.XA6.MP1.S SUNSAR_SAR8B_CV_0.XDAC2.CP<0>.t9 SUNSAR_SAR8B_CV_0.XA6.XA9.B VPWR.t27 sky130_fd_pr__pfet_01v8 ad=0.378 pd=1.78 as=0.6156 ps=3.3 w=1.08 l=0.18
X83 SUNSAR_CAPT8B_CV_0.XD09.XA6.A SUNSAR_CAPT8B_CV_0.XD09.XA5.A VGND.t193 VGND.t133 sky130_fd_pr__nfet_01v8 ad=0.6156 pd=3.3 as=0.6156 ps=3.3 w=1.08 l=0.18
X84 SUNSAR_CAPT8B_CV_0.XB07.XA7.CN SUNSAR_CAPT8B_CV_0.XB07.XA1.Y.t2 VGND.t385 VGND.t384 sky130_fd_pr__nfet_01v8 ad=0.6156 pd=3.3 as=0.6156 ps=3.3 w=1.08 l=0.18
X85 SUNSAR_CAPT8B_CV_0.XE10.XA1.Y.t0 SUNSAR_SAR8B_CV_0.DONE.t13 VGND.t431 VGND.t88 sky130_fd_pr__nfet_01v8 ad=0.6156 pd=3.3 as=0.6156 ps=3.3 w=1.08 l=0.18
X86 SUNSAR_SAR8B_CV_0.XA3.XA9.A SUNSAR_SAR8B_CV_0.XA3.ENO.t2 VGND.t359 VGND.t31 sky130_fd_pr__nfet_01v8 ad=0.6156 pd=3.3 as=0.6156 ps=3.3 w=1.08 l=0.18
X87 SUNSAR_CAPT8B_CV_0.XE10.XA1.Y.t1 SUNSAR_SAR8B_CV_0.DONE.t17 VPWR.t504 VPWR.t145 sky130_fd_pr__pfet_01v8 ad=0.6156 pd=3.3 as=0.6156 ps=3.3 w=1.08 l=0.18
X88 VPWR.t255 SUNSAR_SAR8B_CV_0.XB1.XA4.GN SUNSAR_SAR8B_CV_0.XB1.XA4.GNG.t1 VPWR.t254 sky130_fd_pr__pfet_01v8 ad=0.6156 pd=3.3 as=0.378 ps=1.78 w=1.08 l=0.18
X89 SUNSAR_SAR8B_CV_0.XA2.XA1.XA5.MP1.S SUNSAR_SAR8B_CV_0.EN.t21 VPWR.t529 VPWR.t9 sky130_fd_pr__pfet_01v8 ad=0.378 pd=1.78 as=0.6156 ps=3.3 w=1.08 l=0.18
X90 SUNSAR_SAR8B_CV_0.XA0.XA1.XA5.MN2.S SUNSAR_SAR8B_CV_0.XA0.XA1.XA5.LCK_N SUNSAR_SAR8B_CV_0.XA0.XA1.XA5.MN1.S VGND.t197 sky130_fd_pr__nfet_01v8 ad=0.378 pd=1.78 as=0.378 ps=1.78 w=1.08 l=0.18
X91 SUNSAR_CAPT8B_CV_0.XH13.XA6.MN1.S SUNSAR_CAPT8B_CV_0.XH13.XA6.A VGND.t198 VGND.t120 sky130_fd_pr__nfet_01v8 ad=0.378 pd=1.78 as=0.6156 ps=3.3 w=1.08 l=0.18
X92 SUNSAR_CAPT8B_CV_0.XH13.XA7.CN SUNSAR_CAPT8B_CV_0.XH13.XA1.Y.t3 VPWR.t435 VPWR.t196 sky130_fd_pr__pfet_01v8 ad=0.6156 pd=3.3 as=0.6156 ps=3.3 w=1.08 l=0.18
X93 VGND.t135 VGND.t132 VGND.t134 VGND.t133 sky130_fd_pr__nfet_01v8 ad=0.6156 pd=3.3 as=0 ps=0 w=1.08 l=0.18
X94 VGND.t115 VGND.t113 VGND.t114 VGND.t16 sky130_fd_pr__nfet_01v8 ad=0.6156 pd=3.3 as=0 ps=0 w=1.08 l=0.18
X95 VGND.t337 SUNSAR_SAR8B_CV_0.XA3.XA1.CHL_OP.t3 SUNSAR_SAR8B_CV_0.XA3.CP0.t1 VGND.t31 sky130_fd_pr__nfet_01v8 ad=0.6156 pd=3.3 as=0.378 ps=1.78 w=1.08 l=0.18
X96 VPWR.t123 VPWR.t120 VPWR.t122 VPWR.t121 sky130_fd_pr__pfet_01v8 ad=0.6156 pd=3.3 as=0 ps=0 w=1.08 l=0.18
X97 ua[1].t8 SUNSAR_SAR8B_CV_0.XB1.TIE_L.t6 SUNSAR_SAR8B_CV_0.SARN VGND.t192 sky130_fd_pr__nfet_01v8 ad=0.6156 pd=3.3 as=0.6156 ps=3.3 w=1.08 l=0.18
X98 SUNSAR_SAR8B_CV_0.XA20.XA1.MP0.S SUNSAR_SAR8B_CV_0.SARP.t13 SUNSAR_SAR8B_CV_0.XA20.XA1.MP0.S VGND.t11 sky130_fd_pr__nfet_01v8 ad=0.378 pd=1.78 as=0 ps=0 w=1.08 l=0.18
X99 VPWR.t261 SUNSAR_SAR8B_CV_0.XA4.XA1.XA1.MP3.G SUNSAR_SAR8B_CV_0.XA4.XA1.XA1.MP3.S VPWR.t94 sky130_fd_pr__pfet_01v8 ad=0.6156 pd=3.3 as=0.6156 ps=3.3 w=1.08 l=0.18
R7 uio_out[3] TIE_L1 sky130_fd_pr__res_generic_m4 w=0.3 l=0.3
X100 SUNSAR_SAR8B_CV_0.XA6.XA1.XA5.MP2.S SUNSAR_SAR8B_CV_0.EN.t53 SUNSAR_SAR8B_CV_0.XA6.XA1.XA5.MP1.S VPWR.t27 sky130_fd_pr__pfet_01v8 ad=0.378 pd=1.78 as=0.378 ps=1.78 w=1.08 l=0.18
X101 SUNSAR_SAR8B_CV_0.XA2.XA1.XA1.MP2.S SUNSAR_SAR8B_CV_0.XA0.CMP_ON.t23 SUNSAR_SAR8B_CV_0.XA3.EN VPWR.t9 sky130_fd_pr__pfet_01v8 ad=0.6156 pd=3.3 as=0.6156 ps=3.3 w=1.08 l=0.18
X102 SUNSAR_CAPT8B_CV_0.XE10.XA6.A SUNSAR_CAPT8B_CV_0.XE10.XA5.A VGND.t201 VGND.t88 sky130_fd_pr__nfet_01v8 ad=0.6156 pd=3.3 as=0.6156 ps=3.3 w=1.08 l=0.18
X103 SUNSAR_CAPT8B_CV_0.XH13.XA1.Y.t0 SUNSAR_SAR8B_CV_0.DONE.t21 VGND.t437 VGND.t120 sky130_fd_pr__nfet_01v8 ad=0.6156 pd=3.3 as=0.6156 ps=3.3 w=1.08 l=0.18
X104 SUNSAR_SAR8B_CV_0.XA2.DONE SUNSAR_SAR8B_CV_0.XA2.XA9.A VGND.t17 VGND.t16 sky130_fd_pr__nfet_01v8 ad=0.6156 pd=3.3 as=0.6156 ps=3.3 w=1.08 l=0.18
X105 SUNSAR_CAPT8B_CV_0.XE10.XA6.A SUNSAR_CAPT8B_CV_0.XE10.XA5.A VPWR.t262 VPWR.t145 sky130_fd_pr__pfet_01v8 ad=0.6156 pd=3.3 as=0.6156 ps=3.3 w=1.08 l=0.18
X106 SUNSAR_SAR8B_CV_0.XDAC1.CP<6>.t0 SUNSAR_SAR8B_CV_0.XA1.XA1.CHL_OP.t5 VGND.t401 VGND.t25 sky130_fd_pr__nfet_01v8 ad=0.378 pd=1.78 as=0.378 ps=1.78 w=1.08 l=0.18
X107 uo_out[0].t0 SUNSAR_CAPT8B_CV_0.XI14.QN VGND.t158 VGND.t49 sky130_fd_pr__nfet_01v8 ad=0.6156 pd=3.3 as=0.6156 ps=3.3 w=1.08 l=0.18
X108 SUNSAR_SAR8B_CV_0.XDAC1.CP<6>.t1 SUNSAR_SAR8B_CV_0.XA1.XA1.CHL_OP.t6 VPWR.t485 VPWR.t21 sky130_fd_pr__pfet_01v8 ad=0.378 pd=1.78 as=0.378 ps=1.78 w=1.08 l=0.18
R8 SUNSAR_SAR8B_CV_0.XDAC1.X16ab.XRES1A.B SUNSAR_SAR8B_CV_0.D<5> sky130_fd_pr__res_generic_l1 w=0.34 l=0.34
X109 VGND.t37 VGND.t34 VGND.t36 VGND.t35 sky130_fd_pr__nfet_01v8 ad=0.6156 pd=3.3 as=0 ps=0 w=1.08 l=0.18
X110 VGND.t90 VGND.t87 VGND.t89 VGND.t88 sky130_fd_pr__nfet_01v8 ad=0.6156 pd=3.3 as=0 ps=0 w=1.08 l=0.18
X111 VGND.t62 VGND.t60 VGND.t61 VGND.t31 sky130_fd_pr__nfet_01v8 ad=0.6156 pd=3.3 as=0 ps=0 w=1.08 l=0.18
X112 SUNSAR_SAR8B_CV_0.XA1.XA12.A SUNSAR_SAR8B_CV_0.XA1.XA11.A VGND.t202 VGND.t25 sky130_fd_pr__nfet_01v8 ad=0.378 pd=1.78 as=0.6156 ps=3.3 w=1.08 l=0.18
X113 SUNSAR_SAR8B_CV_0.XDAC2.CP<4>.t1 SUNSAR_SAR8B_CV_0.XDAC1.CP<4>.t11 VGND.t393 VGND.t16 sky130_fd_pr__nfet_01v8 ad=0.378 pd=1.78 as=0.6156 ps=3.3 w=1.08 l=0.18
X114 VPWR.t446 SUNSAR_SAR8B_CV_0.XA20.XA2.CO.t10 SUNSAR_SAR8B_CV_0.XA0.CMP_ON.t3 VPWR.t445 sky130_fd_pr__pfet_01v8 ad=0.6156 pd=3.3 as=0.378 ps=1.78 w=1.08 l=0.18
X115 VPWR.t147 VPWR.t144 VPWR.t146 VPWR.t145 sky130_fd_pr__pfet_01v8 ad=0.6156 pd=3.3 as=0 ps=0 w=1.08 l=0.18
X116 SUNSAR_SAR8B_CV_0.XA1.XA11.MP1.S SUNSAR_SAR8B_CV_0.XA1.XA11.A VPWR.t263 VPWR.t21 sky130_fd_pr__pfet_01v8 ad=0.378 pd=1.78 as=0.6156 ps=3.3 w=1.08 l=0.18
X117 SUNSAR_CAPT8B_CV_0.XH13.XA6.A SUNSAR_CAPT8B_CV_0.XH13.XA5.A VGND.t204 VGND.t120 sky130_fd_pr__nfet_01v8 ad=0.6156 pd=3.3 as=0.6156 ps=3.3 w=1.08 l=0.18
X118 VGND.t23 SUNSAR_SAR8B_CV_0.XA5.CEIN SUNSAR_SAR8B_CV_0.XA5.XA12.A VGND.t22 sky130_fd_pr__nfet_01v8 ad=0.6156 pd=3.3 as=0.378 ps=1.78 w=1.08 l=0.18
X119 SUNSAR_SAR8B_CV_0.XA3.DONE SUNSAR_SAR8B_CV_0.XA3.XA9.A VGND.t195 VGND.t31 sky130_fd_pr__nfet_01v8 ad=0.6156 pd=3.3 as=0.6156 ps=3.3 w=1.08 l=0.18
X120 SUNSAR_SAR8B_CV_0.XA5.XA12.A SUNSAR_SAR8B_CV_0.XA5.CEIN SUNSAR_SAR8B_CV_0.XA5.XA11.MP1.S VPWR.t17 sky130_fd_pr__pfet_01v8 ad=0.6156 pd=3.3 as=0.378 ps=1.78 w=1.08 l=0.18
X121 SUNSAR_SAR8B_CV_0.XA1.XA6.MN3.S SUNSAR_SAR8B_CV_0.CK_SAMPLE.t13 VGND.t510 VGND.t25 sky130_fd_pr__nfet_01v8 ad=0.378 pd=1.78 as=0.378 ps=1.78 w=1.08 l=0.18
X122 VGND.t322 SUNSAR_SAR8B_CV_0.XA2.XA1.CHL_ON.t2 SUNSAR_SAR8B_CV_0.XDAC2.CP<5>.t0 VGND.t16 sky130_fd_pr__nfet_01v8 ad=0.6156 pd=3.3 as=0.378 ps=1.78 w=1.08 l=0.18
X123 SUNSAR_SAR8B_CV_0.XA1.XA6.MP3.S SUNSAR_SAR8B_CV_0.D<6>.t8 VPWR.t413 VPWR.t21 sky130_fd_pr__pfet_01v8 ad=0.378 pd=1.78 as=0.378 ps=1.78 w=1.08 l=0.18
X124 SUNSAR_SAR8B_CV_0.XDAC1.CP<9>.t3 SUNSAR_SAR8B_CV_0.D<7>.t13 VPWR.t576 VPWR.t6 sky130_fd_pr__pfet_01v8 ad=0.378 pd=1.78 as=0.378 ps=1.78 w=1.08 l=0.18
R9 SUNSAR_SAR8B_CV_0.XDAC2.CP<5> SUNSAR_SAR8B_CV_0.XDAC2.X16ab.XRES4.B sky130_fd_pr__res_generic_l1 w=0.34 l=0.34
X125 VGND.t122 VGND.t119 VGND.t121 VGND.t120 sky130_fd_pr__nfet_01v8 ad=0.6156 pd=3.3 as=0 ps=0 w=1.08 l=0.18
X126 SUNSAR_SAR8B_CV_0.XA5.XA9.B SUNSAR_SAR8B_CV_0.CK_SAMPLE.t33 SUNSAR_SAR8B_CV_0.XA5.XA6.MN3.S VGND.t22 sky130_fd_pr__nfet_01v8 ad=0.6156 pd=3.3 as=0.378 ps=1.78 w=1.08 l=0.18
X127 SUNSAR_SAR8B_CV_0.XDAC2.CP<3>.t1 SUNSAR_SAR8B_CV_0.XA3.CP0.t10 VGND.t343 VGND.t31 sky130_fd_pr__nfet_01v8 ad=0.378 pd=1.78 as=0.6156 ps=3.3 w=1.08 l=0.18
X128 SUNSAR_SAR8B_CV_0.XA5.XA9.B SUNSAR_SAR8B_CV_0.D<2>.t8 SUNSAR_SAR8B_CV_0.XA5.XA6.MP3.S VPWR.t17 sky130_fd_pr__pfet_01v8 ad=0.6156 pd=3.3 as=0.378 ps=1.78 w=1.08 l=0.18
X129 SUNSAR_SAR8B_CV_0.XDAC1.CP<6>.t5 SUNSAR_SAR8B_CV_0.XA1.XA1.CHL_OP.t2 VGND.t443 VGND.t25 sky130_fd_pr__nfet_01v8 ad=0.378 pd=1.78 as=0.6156 ps=3.3 w=1.08 l=0.18
X130 SUNSAR_SAR8B_CV_0.XDAC1.CP<6>.t3 SUNSAR_SAR8B_CV_0.XA1.XA1.CHL_OP.t8 VPWR.t487 VPWR.t21 sky130_fd_pr__pfet_01v8 ad=0.378 pd=1.78 as=0.6156 ps=3.3 w=1.08 l=0.18
X131 VPWR.t403 SUNSAR_SAR8B_CV_0.XA4.CN1.t8 SUNSAR_SAR8B_CV_0.D<3>.t0 VPWR.t94 sky130_fd_pr__pfet_01v8 ad=0.6156 pd=3.3 as=0.378 ps=1.78 w=1.08 l=0.18
X132 VGND.t327 SUNSAR_SAR8B_CV_0.XA4.CN1.t10 SUNSAR_SAR8B_CV_0.D<3>.t2 VGND.t96 sky130_fd_pr__nfet_01v8 ad=0.378 pd=1.78 as=0.378 ps=1.78 w=1.08 l=0.18
X133 SUNSAR_SAR8B_CV_0.XA0.XA10.A SUNSAR_SAR8B_CV_0.XA0.XA9.A VPWR.t268 VPWR.t6 sky130_fd_pr__pfet_01v8 ad=0.378 pd=1.78 as=0.6156 ps=3.3 w=1.08 l=0.18
X134 SUNSAR_SAR8B_CV_0.XA20.XA3.N2 SUNSAR_SAR8B_CV_0.SARN SUNSAR_SAR8B_CV_0.XA20.XA3.N1 VGND.t11 sky130_fd_pr__nfet_01v8 ad=0.378 pd=1.78 as=0.378 ps=1.78 w=1.08 l=0.18
X135 VGND.t141 VGND.t139 VGND.t140 VGND.t16 sky130_fd_pr__nfet_01v8 ad=0.6156 pd=3.3 as=0 ps=0 w=1.08 l=0.18
X136 SUNSAR_SAR8B_CV_0.XA2.XA1.XA1.MP3.S SUNSAR_SAR8B_CV_0.XA0.CMP_OP.t27 SUNSAR_SAR8B_CV_0.XA2.XA1.XA1.MP2.S VPWR.t9 sky130_fd_pr__pfet_01v8 ad=0.6156 pd=3.3 as=0.6156 ps=3.3 w=1.08 l=0.18
X137 VPWR.t448 SUNSAR_SAR8B_CV_0.XA20.XA2.CO.t11 SUNSAR_SAR8B_CV_0.XA0.CMP_ON.t4 VPWR.t447 sky130_fd_pr__pfet_01v8 ad=0.378 pd=1.78 as=0.378 ps=1.78 w=1.08 l=0.18
X138 VGND.t319 SUNSAR_SAR8B_CV_0.XA3.XA1.CHL_ON.t3 SUNSAR_SAR8B_CV_0.XA3.CN1.t1 VGND.t31 sky130_fd_pr__nfet_01v8 ad=0.6156 pd=3.3 as=0.378 ps=1.78 w=1.08 l=0.18
X139 VPWR.t274 SUNSAR_SAR8B_CV_0.XA4.XA9.B SUNSAR_SAR8B_CV_0.XA4.XA10.A VPWR.t94 sky130_fd_pr__pfet_01v8 ad=0.6156 pd=3.3 as=0.378 ps=1.78 w=1.08 l=0.18
X140 SUNSAR_SAR8B_CV_0.XA1.XA1.CHL_ON.t0 SUNSAR_SAR8B_CV_0.XA1.EN SUNSAR_SAR8B_CV_0.XA1.XA1.XA5.MN2.S VGND.t25 sky130_fd_pr__nfet_01v8 ad=0.6156 pd=3.3 as=0.378 ps=1.78 w=1.08 l=0.18
X141 SUNSAR_SAR8B_CV_0.XDAC2.CP<8>.t5 SUNSAR_SAR8B_CV_0.XDAC1.CP<8>.t11 VPWR.t587 VPWR.t6 sky130_fd_pr__pfet_01v8 ad=0.378 pd=1.78 as=0.378 ps=1.78 w=1.08 l=0.18
X142 SUNSAR_SAR8B_CV_0.XA1.XA1.CHL_ON.t1 SUNSAR_SAR8B_CV_0.EN.t31 SUNSAR_SAR8B_CV_0.XA1.XA1.XA5.MP2.S VPWR.t21 sky130_fd_pr__pfet_01v8 ad=0.6156 pd=3.3 as=0.378 ps=1.78 w=1.08 l=0.18
X143 SUNSAR_CAPT8B_CV_0.XD09.QN SUNSAR_CAPT8B_CV_0.XD09.XA1.Y.t4 SUNSAR_CAPT8B_CV_0.XD09.XA6.MP1.S VPWR.t153 sky130_fd_pr__pfet_01v8 ad=0.6156 pd=3.3 as=0.378 ps=1.78 w=1.08 l=0.18
X144 VPWR.t599 SUNSAR_SAR8B_CV_0.XA4.CP0.t10 SUNSAR_SAR8B_CV_0.XDAC2.CP<2>.t5 VPWR.t94 sky130_fd_pr__pfet_01v8 ad=0.6156 pd=3.3 as=0.378 ps=1.78 w=1.08 l=0.18
X145 SUNSAR_CAPT8B_CV_0.XI14.XA5.A SUNSAR_CAPT8B_CV_0.XI14.XA7.CN SUNSAR_CAPT8B_CV_0.XI14.XA4.MN1.S VGND.t49 sky130_fd_pr__nfet_01v8 ad=0.6156 pd=3.3 as=0.378 ps=1.78 w=1.08 l=0.18
X146 SUNSAR_SAR8B_CV_0.XDAC1.CP<9>.t5 SUNSAR_SAR8B_CV_0.D<7>.t15 VPWR.t577 VPWR.t6 sky130_fd_pr__pfet_01v8 ad=0.378 pd=1.78 as=0.6156 ps=3.3 w=1.08 l=0.18
X147 VGND.t33 VGND.t30 VGND.t32 VGND.t31 sky130_fd_pr__nfet_01v8 ad=0.6156 pd=3.3 as=0 ps=0 w=1.08 l=0.18
X148 SUNSAR_SAR8B_CV_0.XA6.CEIN SUNSAR_SAR8B_CV_0.XA5.XA12.A VGND.t205 VGND.t22 sky130_fd_pr__nfet_01v8 ad=0.6156 pd=3.3 as=0.6156 ps=3.3 w=1.08 l=0.18
X149 VPWR.t395 SUNSAR_SAR8B_CV_0.XA3.XA1.CHL_ON.t4 SUNSAR_SAR8B_CV_0.XA3.CN1.t2 VPWR.t102 sky130_fd_pr__pfet_01v8 ad=0.378 pd=1.78 as=0.378 ps=1.78 w=1.08 l=0.18
X150 VGND.t112 VGND.t109 VGND.t111 VGND.t110 sky130_fd_pr__nfet_01v8 ad=0.6156 pd=3.3 as=0 ps=0 w=1.08 l=0.18
X151 SUNSAR_SAR8B_CV_0.XA6.CEIN SUNSAR_SAR8B_CV_0.XA5.XA12.A VPWR.t266 VPWR.t17 sky130_fd_pr__pfet_01v8 ad=0.6156 pd=3.3 as=0.6156 ps=3.3 w=1.08 l=0.18
X152 SUNSAR_SAR8B_CV_0.XA20.XA1.CKN.t1 SUNSAR_SAR8B_CV_0.XA20.XA12.Y SUNSAR_SAR8B_CV_0.XA20.XA10.MN1.S VGND.t11 sky130_fd_pr__nfet_01v8 ad=0.6156 pd=3.3 as=0.378 ps=1.78 w=1.08 l=0.18
X153 SUNSAR_SAR8B_CV_0.XDAC2.CP<5>.t2 SUNSAR_SAR8B_CV_0.XA2.XA1.CHL_ON.t4 VPWR.t400 VPWR.t9 sky130_fd_pr__pfet_01v8 ad=0.378 pd=1.78 as=0.378 ps=1.78 w=1.08 l=0.18
X154 SUNSAR_SAR8B_CV_0.XA2.XA1.CHL_OP.t1 SUNSAR_SAR8B_CV_0.XA1.ENO.t3 SUNSAR_SAR8B_CV_0.XA2.XA1.XA4.MN2.S VGND.t16 sky130_fd_pr__nfet_01v8 ad=0.6156 pd=3.3 as=0.378 ps=1.78 w=1.08 l=0.18
X155 SUNSAR_CAPT8B_CV_0.XF11.XA3.MP1.S SUNSAR_SAR8B_CV_0.D<3>.t9 VPWR.t579 VPWR.t106 sky130_fd_pr__pfet_01v8 ad=0.378 pd=1.78 as=0.6156 ps=3.3 w=1.08 l=0.18
X156 SUNSAR_SAR8B_CV_0.XA0.XA9.A SUNSAR_SAR8B_CV_0.XA1.EN VGND.t170 VGND.t169 sky130_fd_pr__nfet_01v8 ad=0.6156 pd=3.3 as=0.6156 ps=3.3 w=1.08 l=0.18
X157 VGND.t159 SUNSAR_SAR8B_CV_0.XA6.XA1.CHL_ON.t3 SUNSAR_SAR8B_CV_0.XA6.CN1.t1 VGND.t92 sky130_fd_pr__nfet_01v8 ad=0.378 pd=1.78 as=0.378 ps=1.78 w=1.08 l=0.18
X158 SUNSAR_SAR8B_CV_0.XA2.XA1.XA1.MN2.S SUNSAR_SAR8B_CV_0.XA1.ENO.t4 SUNSAR_SAR8B_CV_0.XA2.XA1.XA1.MP3.G VGND.t16 sky130_fd_pr__nfet_01v8 ad=0.6156 pd=3.3 as=0.6156 ps=3.3 w=1.08 l=0.18
X159 SUNSAR_CAPT8B_CV_0.XG12.XA4.MN1.S SUNSAR_CAPT8B_CV_0.XG12.XA6.A VGND.t155 VGND.t64 sky130_fd_pr__nfet_01v8 ad=0.378 pd=1.78 as=0.6156 ps=3.3 w=1.08 l=0.18
R10 m3_18054_4848# SUNSAR_SAR8B_CV_0.XB2.XCAPB1.B sky130_fd_pr__res_generic_m3 w=0.4 l=0.36
X160 SUNSAR_CAPT8B_CV_0.XG12.XA4.MP1.S SUNSAR_CAPT8B_CV_0.XG12.XA6.A VPWR.t214 VPWR.t75 sky130_fd_pr__pfet_01v8 ad=0.378 pd=1.78 as=0.6156 ps=3.3 w=1.08 l=0.18
X161 SUNSAR_SAR8B_CV_0.XA4.XA11.A SUNSAR_SAR8B_CV_0.XA4.XA10.A VPWR.t270 VPWR.t94 sky130_fd_pr__pfet_01v8 ad=0.6156 pd=3.3 as=0.6156 ps=3.3 w=1.08 l=0.18
X162 SUNSAR_SAR8B_CV_0.XA6.XA9.A SUNSAR_SAR8B_CV_0.XA7.EN VPWR.t304 VPWR.t27 sky130_fd_pr__pfet_01v8 ad=0.6156 pd=3.3 as=0.6156 ps=3.3 w=1.08 l=0.18
X163 VGND.t457 SUNSAR_SAR8B_CV_0.XA0.XA1.CHL_OP.t4 SUNSAR_SAR8B_CV_0.XDAC1.CP<8>.t0 VGND.t456 sky130_fd_pr__nfet_01v8 ad=0.6156 pd=3.3 as=0.378 ps=1.78 w=1.08 l=0.18
X164 SUNSAR_SAR8B_CV_0.XA3.XA1.XA4.MP2.S SUNSAR_SAR8B_CV_0.EN.t51 SUNSAR_SAR8B_CV_0.XA3.XA1.XA4.MP1.S VPWR.t102 sky130_fd_pr__pfet_01v8 ad=0.378 pd=1.78 as=0.378 ps=1.78 w=1.08 l=0.18
X165 SUNSAR_SAR8B_CV_0.XA3.XA1.CHL_OP.t1 SUNSAR_SAR8B_CV_0.XA3.EN SUNSAR_SAR8B_CV_0.XA3.XA1.XA4.MN2.S VGND.t31 sky130_fd_pr__nfet_01v8 ad=0.6156 pd=3.3 as=0.378 ps=1.78 w=1.08 l=0.18
X166 SUNSAR_SAR8B_CV_0.XA0.CMP_ON.t5 SUNSAR_SAR8B_CV_0.XA20.XA2.CO.t12 VGND.t382 VGND.t11 sky130_fd_pr__nfet_01v8 ad=0.378 pd=1.78 as=0.6156 ps=3.3 w=1.08 l=0.18
X167 SUNSAR_SAR8B_CV_0.XA4.XA6.MP1.S SUNSAR_SAR8B_CV_0.XDAC2.CP<2>.t9 SUNSAR_SAR8B_CV_0.XA4.XA9.B VPWR.t94 sky130_fd_pr__pfet_01v8 ad=0.378 pd=1.78 as=0.6156 ps=3.3 w=1.08 l=0.18
X168 VPWR.t409 SUNSAR_SAR8B_CV_0.XA6.XA1.CHL_OP.t3 SUNSAR_SAR8B_CV_0.XA6.CP0.t1 VPWR.t27 sky130_fd_pr__pfet_01v8 ad=0.6156 pd=3.3 as=0.378 ps=1.78 w=1.08 l=0.18
R11 SUNSAR_SAR8B_CV_0.XDAC1.XC32a<0>.XRES4.B SUNSAR_SAR8B_CV_0.D<3> sky130_fd_pr__res_generic_l1 w=0.34 l=0.34
X169 SUNSAR_SAR8B_CV_0.XA5.XA1.XA5.LCK_N SUNSAR_SAR8B_CV_0.XA5.ENO.t2 VGND.t330 VGND.t22 sky130_fd_pr__nfet_01v8 ad=0.6156 pd=3.3 as=0.6156 ps=3.3 w=1.08 l=0.18
X170 SUNSAR_SAR8B_CV_0.XA2.XA1.XA4.MN1.S SUNSAR_SAR8B_CV_0.XA0.CMP_OP.t21 VGND.t550 VGND.t16 sky130_fd_pr__nfet_01v8 ad=0.378 pd=1.78 as=0.6156 ps=3.3 w=1.08 l=0.18
X171 VPWR.t460 SUNSAR_SAR8B_CV_0.XDAC1.CP<4>.t12 SUNSAR_SAR8B_CV_0.XDAC2.CP<4>.t5 VPWR.t9 sky130_fd_pr__pfet_01v8 ad=0.378 pd=1.78 as=0.378 ps=1.78 w=1.08 l=0.18
X172 SUNSAR_SAR8B_CV_0.XDAC2.CP<5>.t3 SUNSAR_SAR8B_CV_0.XA2.XA1.CHL_ON.t5 VPWR.t401 VPWR.t9 sky130_fd_pr__pfet_01v8 ad=0.378 pd=1.78 as=0.6156 ps=3.3 w=1.08 l=0.18
X173 SUNSAR_SAR8B_CV_0.XA3.XA1.XA1.MN2.S SUNSAR_SAR8B_CV_0.XA3.EN SUNSAR_SAR8B_CV_0.XA3.XA1.XA1.MP3.G VGND.t31 sky130_fd_pr__nfet_01v8 ad=0.6156 pd=3.3 as=0.6156 ps=3.3 w=1.08 l=0.18